data_POSCAR
  _audit_creation_date              2014-09-24
  _audit_creation_method            'ToBaCCo'
  _symmetry_space_group_name_H-M    'P1'
  _symmetry_Int_Tables_number       1
  _symmetry_cell_setting            triclinic
  loop_
  _symmetry_equiv_pos_as_xyz
 x,y,z
_cell_length_a 56.4292
_cell_length_b 56.6222
_cell_length_c 56.2741
_cell_angle_alpha 90.346200
_cell_angle_beta 90.628900
_cell_angle_gamma 90.871100
loop_
  _atom_site_label
  _atom_site_type_symbol
  _atom_site_fract_x
  _atom_site_fract_y
  _atom_site_fract_z
C1 C 0.11561 -0.00111 0.22882
 C2 C 0.13386 0.01891 0.23079
 C3 C 0.14683 0.01912 0.25119
 C4 C 0.14061 -0.00112 0.26822
 C5 C 0.12964 -0.02368 0.23279
 C6 C 0.14274 -0.02376 0.25321
 C7 C 0.10070 0.00099 0.25148
 C8 C 0.11370 0.00080 0.27212
 H9 H 0.13524 0.03286 0.21773
 H10 H 0.15151 -0.00124 0.28476
 H11 H 0.12799 -0.03902 0.22125
 H12 H 0.08158 0.00086 0.25152
 C13 C 0.38706 -0.00162 0.72934
 C14 C 0.36721 -0.02013 0.73112
 C15 C 0.35379 -0.01820 0.75088
 C16 C 0.36149 0.00245 0.76744
 C17 C 0.37470 0.02207 0.73158
 C18 C 0.36147 0.02450 0.75144
 C19 C 0.40048 -0.00397 0.75145
 C20 C 0.38668 -0.00130 0.77264
 H21 H 0.36534 -0.03487 0.71882
 H22 H 0.34985 0.00456 0.78299
 H23 H 0.37713 0.03618 0.71886
 H24 H 0.41835 -0.01040 0.75226
 C25 C 0.88497 0.49903 0.22701
 C26 C 0.86525 0.48054 0.22931
 C27 C 0.85218 0.48250 0.24926
 C28 C 0.85980 0.50331 0.26549
 C29 C 0.87271 0.52276 0.22941
 C30 C 0.85970 0.52525 0.24941
 C31 C 0.89949 0.49703 0.25026
 C32 C 0.88637 0.49948 0.27040
 H33 H 0.86333 0.46563 0.21723
 H34 H 0.84886 0.50524 0.28164
 H35 H 0.87525 0.53696 0.21682
 H36 H 0.91844 0.49495 0.25110
 C37 C 0.61707 0.49714 0.73152
 C38 C 0.63523 0.51723 0.73347
 C39 C 0.64828 0.51745 0.75380
 C40 C 0.64224 0.49715 0.77082
 C41 C 0.63123 0.47461 0.73535
 C42 C 0.64443 0.47454 0.75572
 C43 C 0.60225 0.49906 0.75424
 C44 C 0.61532 0.49893 0.77484
 H45 H 0.63654 0.53117 0.72040
 H46 H 0.65319 0.49705 0.78733
 H47 H 0.62953 0.45925 0.72384
 H48 H 0.58312 0.49884 0.75429
 C49 C 0.23036 0.11391 1.00063
 C50 C 0.23193 0.13251 1.02026
 C51 C 0.25207 0.14582 1.02029
 C52 C 0.26929 0.13955 1.00034
 C53 C 0.23425 0.12752 0.97756
 C54 C 0.25442 0.14095 0.97735
 C55 C 0.25316 0.09954 1.00343
 C56 C 0.27355 0.11287 1.00306
 H57 H 0.21879 0.13393 1.03409
 H58 H 0.28565 0.15068 1.00010
 H59 H 0.22272 0.12554 0.96212
 H60 H 0.25351 0.08049 1.00370
 C61 C 0.72392 0.38391 0.99288
 C62 C 0.72399 0.36309 0.97777
 C63 C 0.74465 0.34899 0.98003
 C64 C 0.76166 0.35843 0.99787
 C65 C 0.72756 0.37530 1.01679
 C66 C 0.74822 0.36125 1.02003
 C67 C 0.74594 0.39649 0.98708
 C68 C 0.76715 0.38289 0.99059
 H69 H 0.71147 0.36067 0.96314
 H70 H 0.77717 0.34697 1.00016
 H71 H 0.71472 0.37810 1.03069
 H72 H 0.74644 0.41306 0.97771
 C73 C 0.22689 0.88854 0.49771
 C74 C 0.22899 0.86870 0.47947
 C75 C 0.24897 0.85585 0.48149
 C76 C 0.26546 0.86384 0.50211
 C77 C 0.22974 0.87658 0.52181
 C78 C 0.24979 0.86381 0.52438
 C79 C 0.25000 0.90317 0.49515
 C80 C 0.27021 0.89033 0.49769
 H81 H 0.21661 0.86641 0.46473
 H82 H 0.28164 0.85309 0.50409
 H83 H 0.21724 0.87895 0.53609
 H84 H 0.25071 0.92201 0.49255
 C85 C 0.73127 0.61562 0.49636
 C86 C 0.73305 0.63351 0.51663
 C87 C 0.75345 0.64640 0.51728
 C88 C 0.77068 0.64049 0.49724
 C89 C 0.73559 0.62995 0.47379
 C90 C 0.75602 0.64301 0.47422
 C91 C 0.75374 0.60071 0.49874
 C92 C 0.77439 0.61364 0.49905
 H93 H 0.71979 0.63478 0.53036
 H94 H 0.78723 0.65134 0.49749
 H95 H 0.72435 0.62853 0.45810
 H96 H 0.75358 0.58163 0.49838
 C97 C -0.00071 0.22517 0.11265
 C98 C 0.01873 0.22711 0.13157
 C99 C 0.01862 0.24732 0.14455
 C100 C -0.00140 0.26420 0.13768
 C101 C -0.02385 0.22894 0.12599
 C102 C -0.02432 0.24921 0.13908
 C103 C 0.00203 0.24778 0.09778
 C104 C 0.00147 0.26822 0.11078
 H105 H 0.03267 0.21423 0.13329
 H106 H -0.00180 0.28059 0.14858
 H107 H -0.03920 0.21735 0.12391
 H108 H 0.00239 0.24789 0.07861
 C109 C -0.00256 0.72710 0.38659
 C110 C -0.01914 0.72687 0.36693
 C111 C -0.01887 0.74760 0.35272
 C112 C -0.00116 0.76521 0.36074
 C113 C 0.02160 0.73213 0.37556
 C114 C 0.02256 0.75193 0.36200
 C115 C -0.00767 0.74995 0.40059
 C116 C -0.00641 0.77008 0.38722
 H117 H -0.03281 0.71328 0.36510
 H118 H -0.00013 0.78121 0.34948
 H119 H 0.03689 0.72120 0.37879
 H120 H -0.00958 0.75065 0.41962
 C121 C 0.49629 0.22806 0.88856
 C122 C 0.47762 0.23020 0.86893
 C123 C 0.47970 0.24993 0.85555
 C124 C 0.50066 0.26619 0.86287
 C125 C 0.52005 0.23049 0.87598
 C126 C 0.52255 0.25029 0.86266
 C127 C 0.49446 0.25126 0.90289
 C128 C 0.49700 0.27122 0.88952
 H129 H 0.46274 0.21796 0.86705
 H130 H 0.50263 0.28218 0.85170
 H131 H 0.53419 0.21795 0.87835
 H132 H 0.49222 0.25220 0.92187
 C133 C 0.49870 0.73157 0.61447
 C134 C 0.51842 0.73288 0.63314
 C135 C 0.51906 0.75303 0.64621
 C136 C 0.49950 0.77051 0.63969
 C137 C 0.47587 0.73596 0.62814
 C138 C 0.47622 0.75615 0.64137
 C139 C 0.50192 0.75416 0.59966
 C140 C 0.50215 0.77458 0.61278
 H141 H 0.53200 0.71960 0.63463
 H142 H 0.49971 0.78685 0.65070
 H143 H 0.46018 0.72480 0.62630
 H144 H 0.50210 0.75430 0.58048
 C145 C 0.88466 1.00034 0.76989
 C146 C 0.86894 1.02029 0.76983
 C147 C 0.85372 1.02193 0.74938
 C148 C 0.85749 1.00287 0.73215
 C149 C 0.86865 0.97870 0.76590
 C150 C 0.85445 0.97988 0.74639
 C151 C 0.89845 1.00268 0.74654
 C152 C 0.88429 1.00403 0.72671
 H153 H 0.87093 1.03437 0.78285
 H154 H 0.84578 1.00328 0.71622
 H155 H 0.86907 0.96329 0.77724
 H156 H 0.91751 1.00257 0.74532
 C157 C 0.38462 0.50351 0.27334
 C158 C 0.37056 0.52594 0.26864
 C159 C 0.35729 0.52525 0.24833
 C160 C 0.35932 0.50205 0.23415
 C161 C 0.36635 0.48346 0.27230
 C162 C 0.35324 0.48246 0.25200
 C163 C 0.39932 0.50059 0.25067
 C164 C 0.38620 0.50001 0.23012
 H165 H 0.37230 0.54171 0.27957
 H166 H 0.34830 0.50155 0.21768
 H167 H 0.36515 0.46999 0.28587
 H168 H 0.41846 0.50086 0.25057
 C169 C 0.61483 0.99679 0.27411
 C170 C 0.63478 0.97886 0.27353
 C171 C 0.64903 0.98029 0.25425
 C172 C 0.64181 0.99997 0.23684
 C173 C 0.62611 1.01956 0.27123
 C174 C 0.64076 1.02173 0.25091
 C175 C 0.60141 0.99223 0.25051
 C176 C 0.61548 0.99402 0.23083
 H177 H 0.63559 0.96430 0.28591
 H178 H 0.65346 1.00118 0.22111
 H179 H 0.62359 1.03397 0.28370
 H180 H 0.58259 0.98864 0.24928
 C181 C 0.11513 0.50314 0.77330
 C182 C 0.12665 0.47900 0.77114
 C183 C 0.13980 0.47597 0.75129
 C184 C 0.14064 0.49787 0.73518
 C185 C 0.13550 0.52096 0.77124
 C186 C 0.14877 0.51849 0.75146
 C187 C 0.10106 0.50558 0.74983
 C188 C 0.11431 0.50254 0.72990
 H189 H 0.12367 0.46504 0.78391
 H190 H 0.15168 0.49557 0.71915
 H191 H 0.13772 0.53587 0.78329
 H192 H 0.08226 0.50847 0.74864
 C193 C 0.77084 0.88592 0.00057
 C194 C 0.76543 0.87234 0.02335
 C195 C 0.74490 0.85947 0.02245
 C196 C 0.73124 0.86141 -0.00122
 C197 C 0.76974 0.86746 -0.01919
 C198 C 0.74924 0.85475 -0.02034
 C199 C 0.74864 0.90096 -0.00323
 C200 C 0.72787 0.88823 -0.00394
 H201 H 0.77608 0.87405 0.03943
 H202 H 0.71460 0.85070 -0.00185
 H203 H 0.78350 0.86578 -0.03237
 H204 H 0.74898 0.92004 -0.00313
 C205 C 0.27181 0.38717 0.50347
 C206 C 0.26678 0.37320 0.52611
 C207 C 0.24651 0.35991 0.52516
 C208 C 0.23272 0.36183 0.50155
 C209 C 0.27103 0.36891 0.48350
 C210 C 0.25078 0.35579 0.48227
 C211 C 0.24926 0.40175 0.49992
 C212 C 0.22876 0.38859 0.49912
 H213 H 0.27748 0.37495 0.54215
 H214 H 0.21630 0.35079 0.50086
 H215 H 0.28475 0.36772 0.47022
 H216 H 0.24915 0.42082 0.50010
 C217 C 0.27071 0.60975 0.00352
 C218 C 0.26826 0.62219 -0.02035
 C219 C 0.24846 0.63532 -0.02287
 C220 C 0.23258 0.63515 -0.00076
 C221 C 0.26874 0.62929 0.02212
 C222 C 0.24903 0.64253 0.02013
 C223 C 0.24737 0.59543 0.00565
 C224 C 0.22738 0.60864 0.00316
 H225 H 0.28084 0.61987 -0.03458
 H226 H 0.21659 0.64619 -0.00269
 H227 H 0.28108 0.63119 0.03694
 H228 H 0.24637 0.57657 0.00807
 C229 C 0.77374 0.11505 0.50140
 C230 C 0.77031 0.12419 0.47768
 C231 C 0.74976 0.13842 0.47459
 C232 C 0.73616 0.14085 0.49672
 C233 C 0.77367 0.13555 0.51695
 C234 C 0.75310 0.14980 0.51489
 C235 C 0.75160 0.10247 0.50676
 C236 C 0.73049 0.11625 0.50340
 H237 H 0.78322 0.12160 0.46381
 H238 H 0.72072 0.15244 0.49455
 H239 H 0.78612 0.13757 0.53170
 H240 H 0.75092 0.08572 0.51580
 C241 C 1.00302 0.76760 0.88581
 C242 C 1.02556 0.76311 0.87173
 C243 C 1.02481 0.74307 0.85831
 C244 C 1.00143 0.72891 0.86021
 C245 C 0.98299 0.76669 0.86745
 C246 C 0.98195 0.74667 0.85417
 C247 C 0.99979 0.74490 0.90044
 C248 C 0.99918 0.72460 0.88714
 H249 H 1.04142 0.77405 0.87350
 H250 H 1.00090 0.71267 0.84904
 H251 H 0.96958 0.78016 0.86627
 H252 H 0.99988 0.74456 0.91962
 C253 C 0.50183 0.27394 0.38783
 C254 C 0.52426 0.27014 0.37335
 C255 C 0.52387 0.25016 0.35983
 C256 C 0.50089 0.23538 0.36199
 C257 C 0.48154 0.27259 0.36977
 C258 C 0.48084 0.25265 0.35637
 C259 C 0.49945 0.25108 0.40236
 C260 C 0.49918 0.23086 0.38893
 H261 H 0.53986 0.28148 0.37499
 H262 H 0.50060 0.21920 0.35075
 H263 H 0.46781 0.28576 0.36881
 H264 H 0.49985 0.25059 0.42153
 C265 C 1.00020 0.27159 0.61257
 C266 C 0.97625 0.26827 0.62458
 C267 C 0.97414 0.24830 0.63773
 C268 C 0.99663 0.23321 0.63797
 C269 C 1.01849 0.27004 0.63260
 C270 C 1.01690 0.25015 0.64582
 C271 C 1.00317 0.24857 0.59821
 C272 C 1.00102 0.22847 0.61140
 H273 H 0.96170 0.28027 0.62186
 H274 H 0.99500 0.21710 0.64901
 H275 H 1.03303 0.28265 0.63467
 H276 H 1.00557 0.24782 0.57924
 C277 C 0.50142 0.77256 0.11438
 C278 C 0.47739 0.76938 0.12624
 C279 C 0.47515 0.74957 0.13959
 C280 C 0.49765 0.73449 0.14023
 C281 C 0.51955 0.77126 0.13457
 C282 C 0.51785 0.75157 0.14807
 C283 C 0.50456 0.74939 0.10033
 C284 C 0.50226 0.72943 0.11374
 H285 H 0.46291 0.78143 0.12335
 H286 H 0.49594 0.71851 0.15144
 H287 H 0.53406 0.78392 0.13660
 H288 H 0.50734 0.74842 0.08143
 O289 O -0.01188 0.98446 0.93097
 O290 O 0.02853 0.99707 0.93029
 O291 O -0.01026 0.93001 0.98421
 O292 O 0.00203 0.92914 1.02481
 O293 O -0.06493 0.98227 0.98561
 O294 O -0.06606 1.02257 0.99761
 O295 O 0.04933 0.99455 1.04965
 O296 O 0.05510 0.95680 1.02820
 O297 O 0.05263 1.04484 0.99587
 O298 O 0.03152 1.05033 0.95774
 O299 O -0.00129 1.04752 1.04591
 O300 O -0.03912 1.02570 1.05133
 O301 O 0.01646 1.01088 1.06531
 O302 O -0.02510 0.99738 1.06650
 O303 O 0.01542 1.06359 1.01315
 O304 O 0.00254 1.06472 0.97121
 O305 O 0.06857 1.01233 1.01269
 O306 O 0.07022 0.97093 0.99966
 O307 O -0.04497 1.00032 0.94687
 O308 O -0.05024 1.03696 0.96759
 O309 O -0.04914 0.94970 1.00261
 O310 O -0.02799 0.94430 1.03910
 O311 O 0.00664 0.94593 0.95141
 O312 O 0.04303 0.96744 0.94614
 Zr313 Zr 0.01169 0.98185 0.96001
 O314 O 0.03430 1.00367 0.98078
 Zr315 Zr -0.01317 0.95860 1.00789
 O316 O 0.00834 0.97931 1.03082
 Zr317 Zr -0.03624 1.00603 0.98282
 O318 O -0.01587 1.02892 1.00464
 Zr319 Zr 0.04030 0.98786 1.01392
 O320 O 0.01996 0.96464 0.99202
 Zr321 Zr 0.01714 1.03533 0.98890
 O322 O -0.00441 1.01468 0.96557
 Zr323 Zr -0.00771 1.01200 1.03674
 O324 O -0.03066 0.99013 1.01607
 O325 O -0.02080 0.97382 0.97525
 O326 O 0.02500 1.02026 1.02173
 C327 C -0.03310 0.99225 0.92932
 C328 C -0.00172 0.92837 0.96321
 C329 C -0.06667 0.96134 0.99416
 C330 C 0.03774 1.00334 1.06702
 C331 C 0.07005 1.03356 1.00493
 C332 C 0.00754 1.06501 1.03441
 H333 H 0.04920 1.00647 0.97211
 H334 H -0.02472 1.04363 1.00720
 H335 H -0.03096 0.96350 0.96501
 H336 H 0.01096 0.97060 1.04576
 H337 H 0.04507 0.95159 1.04154
 H338 H 0.01822 0.92767 1.01842
 H339 H -0.01250 1.06862 0.97909
 H340 H -0.03817 1.04305 0.95646
 H341 H 0.07428 0.97888 0.98461
 H342 H 0.04926 0.95660 0.95837
 H343 H -0.04426 1.03896 1.04124
 H344 H -0.06774 1.01626 1.01388
 H345 H 0.02213 1.01317 0.92864
 H346 H 0.04472 1.04030 0.95255
 H347 H -0.03887 0.95632 1.04540
 H348 H -0.01704 0.98257 1.07072
 O349 O 0.48589 0.48998 0.43541
 O350 O 0.52631 0.50276 0.43381
 O351 O 0.48879 0.43541 0.48824
 O352 O 0.50194 0.43448 0.52866
 O353 O 0.43417 0.48756 0.49083
 O354 O 0.43331 0.52782 0.50354
 O355 O 0.54973 0.49949 0.55272
 O356 O 0.55510 0.46205 0.53092
 O357 O 0.55209 0.55008 0.49864
 O358 O 0.52988 0.55573 0.46120
 O359 O 0.49900 0.55292 0.55010
 O360 O 0.46144 0.53093 0.55636
 O361 O 0.51730 0.51593 0.56915
 O362 O 0.47588 0.50277 0.57127
 O363 O 0.51519 0.56894 0.51705
 O364 O 0.50152 0.57029 0.47556
 O365 O 0.56828 0.51755 0.51521
 O366 O 0.56954 0.47621 0.50215
 O367 O 0.45344 0.50648 0.45185
 O368 O 0.44821 0.54250 0.47326
 O369 O 0.45036 0.45500 0.50745
 O370 O 0.47214 0.44959 0.54356
 O371 O 0.50492 0.45154 0.45514
 O372 O 0.54110 0.47296 0.44909
 Zr373 Zr 0.51016 0.48738 0.46383
 O374 O 0.53326 0.50906 0.48415
 Zr375 Zr 0.48638 0.46396 0.51211
 O376 O 0.50837 0.48460 0.53464
 Zr377 Zr 0.46276 0.51150 0.48778
 O378 O 0.48369 0.53431 0.50918
 Zr379 Zr 0.53998 0.49317 0.51711
 O380 O 0.51915 0.47003 0.49556
 Zr381 Zr 0.51636 0.54072 0.49274
 O382 O 0.49421 0.52019 0.46988
 Zr383 Zr 0.49256 0.51733 0.54107
 O384 O 0.46913 0.49548 0.52084
 O385 O 0.47802 0.47931 0.47971
 O386 O 0.52496 0.52561 0.52540
 C387 C 0.46485 0.49826 0.43406
 C388 C 0.49684 0.43391 0.46702
 C389 C 0.43267 0.46657 0.49928
 C390 C 0.53851 0.50812 0.57042
 C391 C 0.56970 0.53870 0.50721
 C392 C 0.50755 0.57043 0.53840
 H393 H 0.54795 0.51183 0.47512
 H394 H 0.47491 0.54902 0.51196
 H395 H 0.46765 0.46908 0.46960
 H396 H 0.51129 0.47582 0.54948
 H397 H 0.54519 0.45663 0.54428
 H398 H 0.51791 0.43289 0.52178
 H399 H 0.48661 0.57413 0.48370
 H400 H 0.46012 0.54896 0.46216
 H401 H 0.57321 0.48411 0.48697
 H402 H 0.54766 0.46213 0.46115
 H403 H 0.45596 0.54408 0.54632
 H404 H 0.43185 0.52110 0.51967
 H405 H 0.51965 0.51875 0.43220
 H406 H 0.54290 0.54567 0.45561
 H407 H 0.46137 0.46159 0.55009
 H408 H 0.48367 0.48768 0.57496
 O409 O 0.45018 -0.04520 0.49689
 O410 O 0.47119 -0.05090 0.46067
 O411 O 0.50686 -0.04708 0.54886
 O412 O 0.54306 -0.02475 0.55402
 O413 O 0.45438 0.00666 0.55231
 O414 O 0.44833 0.04278 0.53137
 O415 O 0.56729 0.01914 0.48830
 O416 O 0.56892 -0.02260 0.50127
 O417 O 0.51401 0.01526 0.43414
 O418 O 0.47286 0.00192 0.43286
 O419 O 0.51356 0.06953 0.48574
 O420 O 0.50050 0.07131 0.52783
 O421 O 0.55122 0.05195 0.50448
 O422 O 0.53010 0.05803 0.54166
 O423 O 0.49625 0.05271 0.45307
 O424 O 0.45854 0.03016 0.44795
 O425 O 0.54752 0.00044 0.45059
 O426 O 0.55487 -0.03610 0.47162
 O427 O 0.43415 -0.01249 0.51342
 O428 O 0.43249 0.02777 0.50106
 O429 O 0.48788 -0.00859 0.56850
 O430 O 0.52797 0.00486 0.56971
 O431 O 0.48939 -0.06376 0.51614
 O432 O 0.50166 -0.06530 0.47559
 Zr433 Zr 0.48604 -0.03576 0.49198
 O434 O 0.50703 -0.01509 0.46921
 Zr435 Zr 0.51123 -0.01121 0.53983
 O436 O 0.53327 0.01065 0.51921
 Zr437 Zr 0.46262 0.01185 0.51637
 O438 O 0.48250 0.03467 0.49460
 Zr439 Zr 0.53914 -0.00567 0.48628
 O440 O 0.51935 -0.02890 0.50803
 Zr441 Zr 0.49048 0.01726 0.46270
 O442 O 0.46806 -0.00461 0.48330
 Zr443 Zr 0.51569 0.04195 0.51055
 O444 O 0.49464 0.02131 0.53377
 O445 O 0.47862 -0.01997 0.52437
 O446 O 0.52335 0.02635 0.47790
 C447 C 0.43255 -0.03367 0.50509
 C448 C 0.49826 -0.06493 0.53725
 C449 C 0.46656 -0.00113 0.56995
 C450 C 0.56879 0.04051 0.49610
 C451 C 0.53543 0.00810 0.43286
 C452 C 0.50527 0.07051 0.46440
 H453 H 0.50959 -0.02409 0.45438
 H454 H 0.47344 0.04921 0.49180
 H455 H 0.46869 -0.03023 0.53454
 H456 H 0.54820 0.01379 0.52809
 H457 H 0.57353 -0.01396 0.51597
 H458 H 0.54905 -0.03611 0.54215
 H459 H 0.45354 0.04375 0.45772
 H460 H 0.43057 0.02092 0.48492
 H461 H 0.54376 -0.04282 0.45958
 H462 H 0.51783 -0.06649 0.48243
 H463 H 0.48574 0.07527 0.51919
 H464 H 0.46064 0.04946 0.54224
 H465 H 0.45979 -0.03935 0.45433
 H466 H 0.48050 -0.01330 0.42936
 H467 H 0.52122 0.02083 0.57123
 H468 H 0.54285 0.04780 0.54770
 O469 O 0.00246 0.44566 1.04555
 O470 O 0.03835 0.46798 1.05146
 O471 O -0.05038 0.49896 1.04876
 O472 O -0.05675 0.53489 1.02809
 O473 O -0.05347 0.44726 0.99272
 O474 O -0.03198 0.44221 0.95685
 O475 O 0.00946 0.56274 0.98378
 O476 O -0.00396 0.56441 1.02531
 O477 O 0.06322 0.51264 0.98609
 O478 O 0.06502 0.47081 0.99902
 O479 O 0.01127 0.51018 0.93201
 O480 O -0.02962 0.49563 0.92922
 O481 O -0.00777 0.54633 0.95087
 O482 O -0.04521 0.52300 0.94493
 O483 O 0.04449 0.49482 0.94850
 O484 O 0.05115 0.45736 0.96896
 O485 O 0.04689 0.54503 1.00282
 O486 O 0.02476 0.55032 1.04016
 O487 O -0.01427 0.42893 1.01249
 O488 O -0.00140 0.42800 0.97197
 O489 O -0.07006 0.47992 1.00884
 O490 O -0.07171 0.52045 0.99741
 O491 O -0.01701 0.48375 1.06521
 O492 O 0.02300 0.49745 1.06705
 Zr493 Zr 0.00670 0.48152 1.03686
 O494 O 0.02896 0.50364 1.01680
 Zr495 Zr -0.04177 0.50438 1.01294
 O496 O -0.02168 0.52763 0.99182
 Zr497 Zr -0.01761 0.45714 0.98847
 O498 O 0.00351 0.47828 0.96614
 Zr499 Zr 0.01126 0.53491 1.00832
 O500 O -0.01008 0.51393 1.03091
 Zr501 Zr 0.03532 0.48767 0.98378
 O502 O 0.01540 0.46413 1.00506
 Zr503 Zr -0.01314 0.51064 0.95986
 O504 O -0.03566 0.48829 0.97983
 O505 O -0.02566 0.47260 1.02089
 O506 O 0.01941 0.51968 0.97567
 C507 C -0.00570 0.42777 1.03374
 C508 C -0.03832 0.49125 1.06653
 C509 C -0.07137 0.45878 1.00034
 C510 C 0.00126 0.56397 0.96243
 C511 C 0.06455 0.53390 0.99416
 C512 C 0.03286 0.50347 0.93095
 H513 H 0.04377 0.50676 1.02589
 H514 H 0.00642 0.46961 0.95119
 H515 H -0.03569 0.46221 1.03083
 H516 H -0.03081 0.54213 0.98906
 H517 H -0.01905 0.56784 1.01703
 H518 H -0.04448 0.54190 1.03881
 H519 H 0.04068 0.45137 0.95600
 H520 H 0.01472 0.42697 0.97898
 H521 H 0.03821 0.54069 1.04566
 H522 H 0.01605 0.51332 1.06870
 H523 H -0.02155 0.48069 0.92554
 H524 H -0.04282 0.45409 0.95012
 H525 H 0.04474 0.45697 1.03948
 H526 H 0.06950 0.47948 1.01374
 H527 H -0.07346 0.51375 0.98119
 H528 H -0.05028 0.53673 0.95446
 O529 O 0.01223 0.43271 0.51275
 O530 O -0.00169 0.43178 0.47257
 O531 O 0.06771 0.48497 0.51071
 O532 O 0.06940 0.52542 0.49827
 O533 O 0.01681 0.48698 0.56645
 O534 O -0.02346 0.49933 0.56877
 O535 O 0.00333 0.55032 0.45315
 O536 O 0.04034 0.52917 0.44583
 O537 O -0.04846 0.49654 0.45003
 O538 O -0.05478 0.45943 0.47109
 O539 O -0.04878 0.54718 0.50529
 O540 O -0.02579 0.55225 0.54279
 O541 O -0.01205 0.56609 0.48668
 O542 O 0.00255 0.56746 0.52792
 O543 O -0.06585 0.51488 0.48776
 O544 O -0.06780 0.47288 0.50101
 O545 O -0.01584 0.51353 0.43374
 O546 O 0.02558 0.50040 0.43103
 O547 O -0.00316 0.44852 0.54634
 O548 O -0.03895 0.46938 0.55310
 O549 O 0.04953 0.50385 0.55010
 O550 O 0.05532 0.53994 0.52914
 O551 O 0.05071 0.45248 0.49333
 O552 O 0.02817 0.44751 0.45725
 Zr553 Zr 0.01479 0.46136 0.48930
 O554 O -0.00712 0.48197 0.46747
 Zr555 Zr 0.03982 0.50891 0.51430
 O556 O 0.01908 0.53169 0.49359
 Zr557 Zr -0.00793 0.48432 0.53830
 O558 O -0.03084 0.50598 0.51870
 Zr559 Zr 0.00940 0.51483 0.46150
 O560 O 0.03266 0.49309 0.48100
 Zr561 Zr -0.03836 0.49027 0.48550
 O562 O -0.01769 0.46713 0.50631
 Zr563 Zr -0.01324 0.53779 0.51058
 O564 O 0.00876 0.51727 0.53274
 O565 O 0.02384 0.47660 0.52189
 O566 O -0.02257 0.52281 0.47775
 C567 C 0.00460 0.43107 0.53412
 C568 C 0.06871 0.46402 0.50186
 C569 C 0.03809 0.49538 0.56783
 C570 C -0.00494 0.56764 0.46516
 C571 C -0.03727 0.50559 0.43245
 C572 C -0.06667 0.53601 0.49616
 H573 H -0.01044 0.47328 0.45249
 H574 H -0.04536 0.50863 0.52794
 H575 H 0.03411 0.46643 0.53172
 H576 H 0.02811 0.54651 0.49092
 H577 H 0.04652 0.54193 0.45637
 H578 H 0.07051 0.51861 0.48208
 H579 H -0.07189 0.48159 0.51566
 H580 H -0.04599 0.45879 0.54078
 H581 H 0.01694 0.48562 0.42674
 H582 H 0.03935 0.45954 0.45100
 H583 H -0.03934 0.54238 0.54803
 H584 H -0.01635 0.51533 0.57070
 H585 H -0.01759 0.43006 0.47969
 H586 H -0.04459 0.45352 0.45824
 H587 H 0.04363 0.54638 0.54035
 H588 H 0.01737 0.57150 0.51954
 O589 O 0.56768 0.98574 0.01159
 O590 O 0.56924 1.02639 -0.00006
 O591 O 0.51715 0.98649 0.06781
 O592 O 0.47700 0.99986 0.07051
 O593 O 0.51216 0.93343 0.01374
 O594 O 0.49784 0.93290 -0.02637
 O595 O 0.45110 1.04800 0.00764
 O596 O 0.47434 1.05262 0.04510
 O597 O 0.50244 1.05153 -0.04494
 O598 O 0.53984 1.03090 -0.05238
 O599 O 0.45120 0.99776 -0.04828
 O600 O 0.44504 0.96047 -0.02732
 O601 O 0.43403 1.01591 -0.01029
 O602 O 0.43191 0.97391 0.00255
 O603 O 0.48397 1.01445 -0.06460
 O604 O 0.52555 1.00199 -0.06726
 O605 O 0.48779 1.06710 -0.01096
 O606 O 0.50251 1.06812 0.03013
 O607 O 0.55045 0.95342 -0.00590
 O608 O 0.52767 0.94860 -0.04173
 O609 O 0.49672 0.94894 0.04743
 O610 O 0.46112 0.96992 0.05471
 O611 O 0.54969 1.00388 0.05156
 O612 O 0.55529 1.04042 0.03112
 Zr613 Zr 0.53977 1.00959 0.01587
 O614 O 0.51894 1.03260 -0.00454
 Zr615 Zr 0.49212 0.98482 0.03983
 O616 O 0.46912 1.00665 0.02050
 Zr617 Zr 0.51452 0.96229 -0.00951
 O618 O 0.49260 0.98314 -0.03106
 Zr619 Zr 0.48669 1.03855 0.01264
 O620 O 0.50880 1.01782 0.03453
 Zr621 Zr 0.50910 1.01608 -0.03677
 O622 O 0.53240 0.99410 -0.01757
 Zr623 Zr 0.46143 0.99128 -0.01284
 O624 O 0.48214 0.96794 0.00773
 O625 O 0.52378 0.97723 0.02314
 O626 O 0.47720 1.02389 -0.02032
 C627 C 0.56855 0.96489 0.00248
 C628 C 0.53848 0.99476 0.06914
 C629 C 0.50456 0.93162 0.03511
 C630 C 0.43321 1.03692 -0.00161
 C631 C 0.49436 1.06877 -0.03265
 C632 C 0.46252 1.00656 -0.06591
 H633 H 0.52791 1.04746 -0.00713
 H634 H 0.48927 0.97455 -0.04610
 H635 H 0.53411 0.96689 0.03272
 H636 H 0.45464 1.00922 0.02982
 H637 H 0.46089 1.04262 0.05036
 H638 H 0.48464 1.01558 0.07275
 H639 H 0.51704 0.98717 -0.07167
 H640 H 0.53886 0.96063 -0.04796
 H641 H 0.51746 1.07201 0.02193
 H642 H 0.54367 1.04661 0.04256
 H643 H 0.45511 0.95472 -0.04035
 H644 H 0.48207 0.93102 -0.01902
 H645 H 0.57006 1.02007 -0.01647
 H646 H 0.54580 1.04379 -0.04188
 H647 H 0.45389 0.95956 0.04230
 H648 H 0.42800 0.98240 0.01738
 O649 O 0.43255 0.51203 0.01355
 O650 O 0.43171 0.47215 -0.00010
 O651 O 0.48493 0.51078 0.06906
 O652 O 0.52548 0.49874 0.07072
 O653 O 0.48706 0.56612 0.01759
 O654 O 0.49925 0.56847 -0.02283
 O655 O 0.55047 0.45381 0.00392
 O656 O 0.52979 0.44658 0.04159
 O657 O 0.49665 0.45034 -0.04715
 O658 O 0.45950 0.47104 -0.05355
 O659 O 0.54760 0.50579 -0.04794
 O660 O 0.55263 0.54310 -0.02512
 O661 O 0.56653 0.48747 -0.01111
 O662 O 0.56776 0.52856 0.00347
 O663 O 0.51524 0.48800 -0.06486
 O664 O 0.47310 0.50086 -0.06683
 O665 O 0.51343 0.43427 -0.01431
 O666 O 0.50047 0.43181 0.02749
 O667 O 0.44834 0.54566 -0.00196
 O668 O 0.46928 0.55244 -0.03815
 O669 O 0.50402 0.55012 0.05045
 O670 O 0.54019 0.52948 0.05631
 O671 O 0.45238 0.49319 0.05216
 O672 O 0.44760 0.45710 0.02986
 Zr673 Zr 0.46137 0.48912 0.01617
 O674 O 0.48207 0.46762 -0.00578
 Zr675 Zr 0.50903 0.51450 0.04098
 O676 O 0.53193 0.49406 0.02022
 Zr677 Zr 0.48432 0.53803 -0.00697
 O678 O 0.50616 0.51875 -0.02989
 Zr679 Zr 0.51503 0.46200 0.01072
 O680 O 0.49320 0.48122 0.03403
 Zr681 Zr 0.49044 0.48560 -0.03724
 O682 O 0.46715 0.50604 -0.01653
 Zr683 Zr 0.53810 0.51099 -0.01229
 O684 O 0.51740 0.53284 0.00966
 O685 O 0.47661 0.52168 0.02501
 O686 O 0.52305 0.47822 -0.02144
 C687 C 0.43085 0.53328 0.00591
 C688 C 0.46388 0.50184 0.07014
 C689 C 0.49554 0.56765 0.03887
 C690 C 0.56789 0.46590 -0.00443
 C691 C 0.50553 0.43290 -0.03578
 C692 C 0.53645 0.49654 -0.06579
 H693 H 0.47333 0.45266 -0.00898
 H694 H 0.50886 0.52795 -0.04450
 H695 H 0.46640 0.53139 0.03527
 H696 H 0.54681 0.49152 0.02919
 H697 H 0.54267 0.45716 0.04754
 H698 H 0.51888 0.48248 0.07171
 H699 H 0.48184 0.51551 -0.07099
 H700 H 0.45859 0.54009 -0.04499
 H701 H 0.48569 0.42731 0.01888
 H702 H 0.45955 0.45122 0.04130
 H703 H 0.54272 0.54823 -0.03870
 H704 H 0.51538 0.57047 -0.01596
 H705 H 0.43000 0.47912 -0.01610
 H706 H 0.45352 0.45824 -0.04324
 H707 H 0.54667 0.54066 0.04449
 H708 H 0.57198 0.52008 0.01819
 O709 O -0.01671 0.01090 0.56609
 O710 O 0.02367 -0.00204 0.56817
 O711 O -0.01353 0.06561 0.51444
 O712 O -0.00093 0.06758 0.47402
 O713 O -0.06863 0.01212 0.51014
 O714 O -0.06964 -0.02802 0.49682
 O715 O 0.04667 0.00449 0.44958
 O716 O 0.05190 0.04186 0.47235
 O717 O 0.04911 -0.04724 0.50213
 O718 O 0.02768 -0.05409 0.53952
 O719 O -0.00470 -0.05063 0.45042
 O720 O -0.04164 -0.02962 0.44373
 O721 O 0.01426 -0.01309 0.43253
 O722 O -0.02770 -0.00011 0.43027
 O723 O 0.01178 -0.06669 0.48341
 O724 O -0.00128 -0.06898 0.52493
 O725 O 0.06523 -0.01383 0.48664
 O726 O 0.06692 0.02716 0.50083
 O727 O -0.04935 -0.00646 0.54911
 O728 O -0.05420 -0.04282 0.52723
 O729 O -0.05220 0.04551 0.49477
 O730 O -0.03111 0.05189 0.45869
 O731 O 0.00311 0.04959 0.54745
 O732 O 0.03894 0.02852 0.55378
 Zr733 Zr 0.00773 0.01387 0.53823
 O734 O 0.03058 -0.00683 0.51772
 Zr735 Zr -0.01636 0.03743 0.48998
 O736 O 0.00534 0.01780 0.46729
 Zr737 Zr -0.04003 -0.01111 0.51325
 O738 O -0.01934 -0.03295 0.49161
 Zr739 Zr 0.03706 0.00986 0.48515
 O740 O 0.01652 0.03201 0.50691
 Zr741 Zr 0.01351 -0.03882 0.50829
 O742 O -0.00838 -0.01928 0.53134
 Zr743 Zr -0.01064 -0.01526 0.46008
 O744 O -0.03384 0.00558 0.48049
 O745 O -0.02447 0.02133 0.52197
 O746 O 0.02185 -0.02285 0.47607
 C747 C -0.03794 0.00238 0.56706
 C748 C -0.00518 0.06714 0.53576
 C749 C -0.06992 0.03342 0.50252
 C750 C 0.03550 -0.00464 0.43168
 C751 C 0.06662 -0.03524 0.49380
 C752 C 0.00392 -0.06810 0.46193
 H753 H 0.04538 -0.00942 0.52681
 H754 H -0.02819 -0.04785 0.48845
 H755 H -0.03464 0.03125 0.53206
 H756 H 0.00819 0.02690 0.45265
 H757 H 0.04220 0.04695 0.45861
 H758 H 0.01506 0.06961 0.48121
 H759 H -0.01638 -0.07299 0.51665
 H760 H -0.04235 -0.04871 0.53878
 H761 H 0.07079 0.01894 0.51580
 H762 H 0.04566 0.03956 0.54197
 H763 H -0.04774 -0.04238 0.45404
 H764 H -0.07128 -0.02102 0.48082
 H765 H 0.01653 -0.01806 0.56941
 H766 H 0.04055 -0.04355 0.54556
 H767 H -0.04187 0.03961 0.45182
 H768 H -0.01900 0.01459 0.42622
 O769 O 0.73787 0.18286 0.25606
 O770 O 0.77934 0.18499 0.24820
 O771 O 0.73368 0.23519 0.31365
 O772 O 0.74474 0.27632 0.31601
 O773 O 0.68180 0.23426 0.25736
 O774 O 0.68228 0.24807 0.21704
 O775 O 0.79292 0.30487 0.25624
 O776 O 0.79748 0.28063 0.29387
 O777 O 0.80195 0.25217 0.20331
 O778 O 0.78286 0.21218 0.19634
 O779 O 0.74706 0.29846 0.19717
 O780 O 0.70677 0.30106 0.21632
 O781 O 0.76055 0.31855 0.23669
 O782 O 0.71921 0.31777 0.24533
 O783 O 0.76558 0.26666 0.18173
 O784 O 0.75483 0.22506 0.17875
 O785 O 0.81571 0.26936 0.23741
 O786 O 0.81747 0.25677 0.27696
 O787 O 0.70458 0.19765 0.23887
 O788 O 0.69973 0.21888 0.20268
 O789 O 0.69589 0.25082 0.29171
 O790 O 0.71424 0.28880 0.29883
 O791 O 0.75205 0.20333 0.29800
 O792 O 0.79026 0.20040 0.27999
 Zr793 Zr 0.75958 0.21298 0.26260
 O794 O 0.78239 0.23521 0.24306
 Zr795 Zr 0.73162 0.25893 0.28511
 O796 O 0.75286 0.28313 0.26632
 Zr797 Zr 0.71178 0.23391 0.23519
 O798 O 0.73253 0.25664 0.21410
 Zr799 Zr 0.78612 0.26831 0.25997
 O800 O 0.76575 0.24493 0.28119
 Zr801 Zr 0.76656 0.24275 0.21008
 O802 O 0.74482 0.21843 0.22856
 Zr803 Zr 0.73838 0.28871 0.23224
 O804 O 0.71531 0.26691 0.25234
 O805 O 0.72614 0.22646 0.26840
 O806 O 0.77216 0.27563 0.22636
 C807 C 0.71703 0.18052 0.24676
 C808 C 0.74226 0.21437 0.31534
 C809 C 0.67922 0.24145 0.27890
 C810 C 0.78080 0.32160 0.24696
 C811 C 0.81837 0.26223 0.21588
 C812 C 0.75736 0.28759 0.18006
 H813 H 0.79786 0.22751 0.24120
 H814 H 0.72448 0.25891 0.19861
 H815 H 0.71602 0.21543 0.27753
 H816 H 0.75412 0.29789 0.27574
 H817 H 0.78769 0.29436 0.29807
 H818 H 0.76049 0.26962 0.31952
 H819 H 0.73928 0.23158 0.17419
 H820 H 0.71268 0.20885 0.19685
 H821 H 0.81943 0.23996 0.27269
 H822 H 0.79502 0.21258 0.29187
 H823 H 0.70385 0.29193 0.20151
 H824 H 0.67944 0.26373 0.22427
 H825 H 0.77426 0.18332 0.23138
 H826 H 0.79720 0.20913 0.20604
 H827 H 0.70299 0.29397 0.28634
 H828 H 0.72403 0.32022 0.26212
 O829 O 0.75597 0.70426 0.69606
 O830 O 0.79204 0.69869 0.71687
 O831 O 0.70606 0.69570 0.75463
 O832 O 0.70023 0.71646 0.79064
 O833 O 0.69758 0.75386 0.70420
 O834 O 0.71843 0.78979 0.69797
 O835 O 0.76582 0.76256 0.81611
 O836 O 0.75428 0.72050 0.81651
 O837 O 0.81781 0.76429 0.76237
 O838 O 0.81777 0.75275 0.72011
 O839 O 0.76392 0.81592 0.76342
 O840 O 0.72146 0.81524 0.75182
 O841 O 0.74688 0.79456 0.80161
 O842 O 0.71002 0.80050 0.78121
 O843 O 0.79633 0.80188 0.74485
 O844 O 0.80242 0.78124 0.70783
 O845 O 0.80359 0.74539 0.79480
 O846 O 0.78283 0.70841 0.80111
 O847 O 0.73662 0.73615 0.68178
 O848 O 0.74757 0.77658 0.68140
 O849 O 0.68352 0.73457 0.73651
 O850 O 0.68350 0.74542 0.77714
 O851 O 0.73826 0.68184 0.73547
 O852 O 0.77889 0.68214 0.74635
 Zr853 Zr 0.76083 0.71156 0.73250
 O854 O 0.78360 0.73236 0.75414
 Zr855 Zr 0.71322 0.73203 0.75921
 O856 O 0.73388 0.75388 0.78189
 Zr857 Zr 0.73398 0.75877 0.71135
 O858 O 0.75570 0.78166 0.73190
 Zr859 Zr 0.76753 0.73925 0.78691
 O860 O 0.74587 0.71593 0.76631
 Zr861 Zr 0.78847 0.76588 0.73900
 O862 O 0.76777 0.74408 0.71587
 Zr863 Zr 0.74078 0.78650 0.76556
 O864 O 0.71757 0.76567 0.74400
 O865 O 0.72754 0.72561 0.72591
 O866 O 0.77428 0.77263 0.77251
 C867 C 0.74683 0.71621 0.67902
 C868 C 0.71819 0.67886 0.74569
 C869 C 0.68064 0.74477 0.71637
 C870 C 0.75627 0.78285 0.81865
 C871 C 0.82052 0.75476 0.78287
 C872 C 0.78437 0.81873 0.75393
 H873 H 0.79870 0.72394 0.75607
 H874 H 0.75752 0.79669 0.72323
 H875 H 0.71729 0.71532 0.71571
 H876 H 0.72536 0.75574 0.79701
 H877 H 0.73942 0.72804 0.82147
 H878 H 0.71301 0.70636 0.79689
 H879 H 0.79085 0.79285 0.70195
 H880 H 0.76385 0.77079 0.67909
 H881 H 0.79466 0.70274 0.78965
 H882 H 0.77294 0.67970 0.76265
 H883 H 0.72938 0.82066 0.73719
 H884 H 0.70810 0.79590 0.71064
 H885 H 0.79819 0.71142 0.70655
 H886 H 0.82283 0.73801 0.72787
 H887 H 0.68112 0.76162 0.77114
 H888 H 0.70397 0.78876 0.79268
 O889 O 0.29563 0.19904 0.74634
 O890 O 0.29741 0.21627 0.70752
 O891 O 0.30428 0.25971 0.79177
 O892 O 0.28261 0.29507 0.79756
 O893 O 0.25010 0.20667 0.80440
 O894 O 0.21115 0.19971 0.78767
 O895 O 0.23339 0.31456 0.73312
 O896 O 0.27581 0.31728 0.74207
 O897 O 0.22833 0.25852 0.68374
 O898 O 0.24087 0.21862 0.68270
 O899 O 0.18077 0.26045 0.74041
 O900 O 0.18374 0.25153 0.78320
 O901 O 0.20168 0.29966 0.75281
 O902 O 0.19915 0.28216 0.79273
 O903 O 0.19346 0.24045 0.70797
 O904 O 0.21664 0.20290 0.70336
 O905 O 0.24599 0.29271 0.69644
 O906 O 0.28684 0.29978 0.71334
 O907 O 0.26397 0.18407 0.76619
 O908 O 0.22246 0.18166 0.75737
 O909 O 0.26817 0.24075 0.81699
 O910 O 0.25448 0.28056 0.81655
 O911 O 0.31708 0.23995 0.75914
 O912 O 0.31392 0.24808 0.71761
 Zr913 Zr 0.28620 0.23406 0.73846
 O914 O 0.26356 0.25329 0.71599
 Zr915 Zr 0.26740 0.26239 0.78655
 O916 O 0.24401 0.28293 0.76619
 Zr917 Zr 0.24078 0.21263 0.76877
 O918 O 0.21611 0.23088 0.74777
 Zr919 Zr 0.25691 0.28631 0.73151
 O920 O 0.28182 0.26820 0.75268
 Zr921 Zr 0.23012 0.23653 0.71379
 O922 O 0.25375 0.21567 0.73396
 Zr923 Zr 0.21139 0.26497 0.76179
 O924 O 0.23390 0.24555 0.78463
 O925 O 0.27380 0.22907 0.77266
 O926 O 0.22360 0.27016 0.72738
 C927 C 0.28454 0.18212 0.75691
 C928 C 0.32073 0.25074 0.77906
 C929 C 0.26053 0.21952 0.82037
 C930 C 0.21265 0.31644 0.74196
 C931 C 0.23528 0.27998 0.68059
 C932 C 0.17713 0.25002 0.72033
 H933 H 0.27082 0.25490 0.70018
 H934 H 0.20116 0.22155 0.74717
 H935 H 0.28513 0.22013 0.78255
 H936 H 0.24220 0.29847 0.77400
 H937 H 0.26928 0.32266 0.75738
 H938 H 0.29219 0.30088 0.78411
 H939 H 0.20332 0.19885 0.71396
 H940 H 0.22806 0.17809 0.74115
 H941 H 0.28948 0.28965 0.69926
 H942 H 0.31588 0.26486 0.72238
 H943 H 0.17918 0.23573 0.77693
 H944 H 0.20660 0.21240 0.79882
 H945 H 0.28477 0.20460 0.70338
 H946 H 0.25714 0.22410 0.67908
 H947 H 0.23864 0.27366 0.81986
 H948 H 0.21033 0.29528 0.79657
 O949 O 0.19762 0.74721 0.29752
 O950 O 0.21422 0.70839 0.30006
 O951 O 0.25917 0.79191 0.30557
 O952 O 0.29500 0.79694 0.28380
 O953 O 0.20662 0.80398 0.25073
 O954 O 0.19984 0.78677 0.21187
 O955 O 0.31389 0.73217 0.23577
 O956 O 0.31638 0.74173 0.27818
 O957 O 0.25695 0.68334 0.23153
 O958 O 0.21680 0.68274 0.24411
 O959 O 0.25989 0.73886 0.18268
 O960 O 0.25146 0.78189 0.18520
 O961 O 0.29932 0.75114 0.20346
 O962 O 0.28294 0.79053 0.19969
 O963 O 0.23932 0.70692 0.19605
 O964 O 0.20145 0.70297 0.21934
 O965 O 0.29131 0.69603 0.24908
 O966 O 0.29834 0.71339 0.28972
 O967 O 0.18321 0.76634 0.26516
 O968 O 0.18098 0.75714 0.22381
 O969 O 0.24088 0.81653 0.26874
 O970 O 0.28089 0.81563 0.25523
 O971 O 0.23877 0.75978 0.31894
 O972 O 0.24613 0.71845 0.31668
 Zr973 Zr 0.23272 0.73883 0.28836
 O974 O 0.25188 0.71601 0.26622
 Zr975 Zr 0.26211 0.78611 0.26868
 O976 O 0.28253 0.76536 0.24566
 Zr977 Zr 0.21213 0.76839 0.24208
 O978 O 0.23023 0.74691 0.21787
 Zr979 Zr 0.28531 0.73109 0.25932
 O980 O 0.26726 0.75262 0.28381
 Zr981 Zr 0.23528 0.71335 0.23268
 O982 O 0.21448 0.73398 0.25583
 Zr983 Zr 0.26467 0.76055 0.21297
 O984 O 0.24548 0.78380 0.23503
 O985 O 0.22838 0.77265 0.27520
 O986 O 0.26926 0.72653 0.22596
 C987 C 0.18093 0.75758 0.28602
 C988 C 0.24985 0.77957 0.32228
 C989 C 0.21968 0.81992 0.26094
 C990 C 0.31596 0.74049 0.21473
 C991 C 0.27841 0.68019 0.23858
 C992 C 0.24917 0.71889 0.17942
 H993 H 0.25321 0.70040 0.27384
 H994 H 0.22096 0.74615 0.20288
 H995 H 0.21949 0.78273 0.28632
 H996 H 0.29825 0.77298 0.24370
 H997 H 0.32208 0.75679 0.27130
 H998 H 0.30043 0.78373 0.29382
 H999 H 0.19764 0.71328 0.20574
 H1000 H 0.17717 0.74105 0.22956
 H1001 H 0.28795 0.69951 0.29262
 H1002 H 0.26308 0.72292 0.31850
 H1003 H 0.23590 0.77520 0.18013
 H1004 H 0.21270 0.79788 0.20731
 H1005 H 0.20246 0.70428 0.28746
 H1006 H 0.22211 0.67942 0.26053
 H1007 H 0.27420 0.81868 0.23923
 H1008 H 0.29534 0.79513 0.21145
 O1009 O 0.24297 0.68176 0.76031
 O1010 O 0.28429 0.68553 0.75250
 O1011 O 0.23513 0.73402 0.81646
 O1012 O 0.24343 0.77541 0.81901
 O1013 O 0.18465 0.72974 0.75893
 O1014 O 0.18509 0.74352 0.71893
 O1015 O 0.29270 0.80565 0.76028
 O1016 O 0.29763 0.78236 0.79788
 O1017 O 0.30483 0.75392 0.70763
 O1018 O 0.28835 0.71322 0.70024
 O1019 O 0.24825 0.79755 0.70042
 O1020 O 0.20843 0.79936 0.71753
 O1021 O 0.26021 0.81805 0.74002
 O1022 O 0.21742 0.81420 0.74867
 O1023 O 0.26815 0.76639 0.68540
 O1024 O 0.25953 0.72393 0.68259
 O1025 O 0.31727 0.77140 0.74209
 O1026 O 0.31821 0.75836 0.78242
 O1027 O 0.21029 0.69416 0.74022
 O1028 O 0.20452 0.71600 0.70448
 O1029 O 0.19692 0.74743 0.79341
 O1030 O 0.21323 0.78651 0.80049
 O1031 O 0.25532 0.70291 0.80158
 O1032 O 0.29420 0.70202 0.78449
 Zr1033 Zr 0.26321 0.71278 0.76638
 O1034 O 0.28540 0.73583 0.74714
 Zr1035 Zr 0.23240 0.75734 0.78771
 O1036 O 0.25320 0.78239 0.76955
 Zr1037 Zr 0.21512 0.73103 0.73748
 O1038 O 0.23520 0.75490 0.71700
 Zr1039 Zr 0.28726 0.76900 0.76406
 O1040 O 0.26728 0.74500 0.78492
 Zr1041 Zr 0.26992 0.74260 0.71381
 O1042 O 0.24909 0.71726 0.73190
 Zr1043 Zr 0.23924 0.78728 0.73518
 O1044 O 0.21662 0.76427 0.75445
 O1045 O 0.22894 0.72455 0.77113
 O1046 O 0.27370 0.77567 0.73015
 C1047 C 0.22315 0.67790 0.74936
 C1048 C 0.24458 0.71363 0.81850
 C1049 C 0.18112 0.73704 0.78028
 C1050 C 0.28019 0.82186 0.75065
 C1051 C 0.32053 0.76467 0.72053
 C1052 C 0.25921 0.78701 0.68356
 H1053 H 0.30124 0.72882 0.74560
 H1054 H 0.22743 0.75680 0.70132
 H1055 H 0.21915 0.71304 0.78003
 H1056 H 0.25362 0.79719 0.77897
 H1057 H 0.28667 0.79517 0.80207
 H1058 H 0.25972 0.77016 0.82263
 H1059 H 0.24427 0.73040 0.67701
 H1060 H 0.21804 0.70662 0.69885
 H1061 H 0.32226 0.74245 0.77654
 H1062 H 0.29808 0.71454 0.79633
 H1063 H 0.20463 0.78819 0.70441
 H1064 H 0.18172 0.75931 0.72564
 H1065 H 0.27973 0.68376 0.73554
 H1066 H 0.30226 0.71050 0.71066
 H1067 H 0.20197 0.79088 0.78770
 H1068 H 0.22374 0.81885 0.76451
 O1069 O 0.25509 0.20652 0.19766
 O1070 O 0.29112 0.20102 0.21838
 O1071 O 0.20521 0.19713 0.25615
 O1072 O 0.19918 0.21753 0.29226
 O1073 O 0.19617 0.25530 0.20599
 O1074 O 0.21650 0.29162 0.20021
 O1075 O 0.26479 0.26405 0.31797
 O1076 O 0.25365 0.22218 0.31845
 O1077 O 0.31638 0.26675 0.26420
 O1078 O 0.31631 0.25537 0.22177
 O1079 O 0.26215 0.31765 0.26609
 O1080 O 0.21996 0.31711 0.25446
 O1081 O 0.24525 0.29587 0.30386
 O1082 O 0.20800 0.30139 0.28319
 O1083 O 0.29452 0.30414 0.24700
 O1084 O 0.30073 0.28389 0.20982
 O1085 O 0.30248 0.24735 0.29647
 O1086 O 0.28170 0.20982 0.30228
 O1087 O 0.23546 0.23830 0.18350
 O1088 O 0.24591 0.27895 0.18349
 O1089 O 0.18233 0.23573 0.23824
 O1090 O 0.18231 0.24665 0.27903
 O1091 O 0.23747 0.18372 0.23675
 O1092 O 0.27814 0.18428 0.24784
 Zr1093 Zr 0.25984 0.21361 0.23412
 O1094 O 0.28251 0.23446 0.25580
 Zr1095 Zr 0.21206 0.23348 0.26098
 O1096 O 0.23261 0.25528 0.28382
 Zr1097 Zr 0.23252 0.26070 0.21325
 O1098 O 0.25404 0.28364 0.23398
 Zr1099 Zr 0.26643 0.24093 0.28864
 O1100 O 0.24486 0.21760 0.26796
 Zr1101 Zr 0.28698 0.26813 0.24088
 O1102 O 0.26644 0.24629 0.21765
 Zr1103 Zr 0.23916 0.28808 0.26773
 O1104 O 0.21610 0.26724 0.24598
 O1105 O 0.22643 0.22741 0.22764
 O1106 O 0.27281 0.27446 0.27445
 C1107 C 0.24586 0.21846 0.18067
 C1108 C 0.21742 0.18050 0.24694
 C1109 C 0.17934 0.24585 0.21806
 C1110 C 0.25503 0.28422 0.32073
 C1111 C 0.31925 0.25710 0.28462
 C1112 C 0.28254 0.32072 0.25655
 H1113 H 0.29771 0.22618 0.25762
 H1114 H 0.25573 0.29877 0.22546
 H1115 H 0.21629 0.21709 0.21736
 H1116 H 0.22413 0.25695 0.29899
 H1117 H 0.23847 0.22924 0.32317
 H1118 H 0.21213 0.20768 0.29855
 H1119 H 0.28904 0.29543 0.20406
 H1120 H 0.26223 0.27330 0.18107
 H1121 H 0.29405 0.20475 0.29108
 H1122 H 0.27206 0.18159 0.26405
 H1123 H 0.22754 0.32234 0.23958
 H1124 H 0.20623 0.29754 0.21303
 H1125 H 0.29727 0.21392 0.20826
 H1126 H 0.32170 0.24076 0.22957
 H1127 H 0.17965 0.26275 0.27290
 H1128 H 0.20246 0.28979 0.29506
 O1129 O 0.79653 0.70050 0.24350
 O1130 O 0.79740 0.71725 0.20434
 O1131 O 0.80845 0.76194 0.28754
 O1132 O 0.78769 0.79765 0.29385
 O1133 O 0.75335 0.71013 0.30304
 O1134 O 0.71373 0.70398 0.28786
 O1135 O 0.73671 0.81742 0.23053
 O1136 O 0.77940 0.81918 0.23813
 O1137 O 0.72852 0.76061 0.18247
 O1138 O 0.73995 0.72075 0.18138
 O1139 O 0.68316 0.76494 0.24043
 O1140 O 0.68754 0.75605 0.28355
 O1141 O 0.70634 0.80428 0.25344
 O1142 O 0.70332 0.78654 0.29199
 O1143 O 0.69432 0.74356 0.20828
 O1144 O 0.71674 0.70549 0.20350
 O1145 O 0.74734 0.79462 0.19392
 O1146 O 0.78896 0.80092 0.20917
 O1147 O 0.76531 0.68666 0.26478
 O1148 O 0.72342 0.68521 0.25743
 O1149 O 0.77284 0.74384 0.31450
 O1150 O 0.76006 0.78409 0.31400
 O1151 O 0.81936 0.74056 0.25516
 O1152 O 0.81510 0.74887 0.21366
 Zr1153 Zr 0.78774 0.73566 0.23547
 O1154 O 0.76481 0.75510 0.21349
 Zr1155 Zr 0.77142 0.76517 0.28379
 O1156 O 0.74782 0.78591 0.26393
 Zr1157 Zr 0.74294 0.71585 0.26770
 O1158 O 0.71801 0.73440 0.24731
 Zr1159 Zr 0.75944 0.78852 0.22868
 O1160 O 0.78466 0.77013 0.24928
 Zr1161 Zr 0.73098 0.73913 0.21279
 O1162 O 0.75477 0.71798 0.23241
 Zr1163 Zr 0.71456 0.76882 0.26097
 O1164 O 0.73745 0.74920 0.28331
 O1165 O 0.77645 0.73149 0.27017
 O1166 O 0.72561 0.77316 0.22602
 C1167 C 0.78547 0.68406 0.25479
 C1168 C 0.82402 0.75180 0.27461
 C1169 C 0.76472 0.72287 0.31843
 C1170 C 0.71723 0.82036 0.24155
 C1171 C 0.73577 0.78186 0.17871
 C1172 C 0.67862 0.75382 0.22086
 H1173 H 0.77150 0.75626 0.19739
 H1174 H 0.70287 0.72541 0.24737
 H1175 H 0.78787 0.72240 0.27980
 H1176 H 0.74676 0.80156 0.27168
 H1177 H 0.77348 0.82499 0.25354
 H1178 H 0.79670 0.80320 0.27991
 H1179 H 0.70356 0.70196 0.21445
 H1180 H 0.72856 0.68105 0.24119
 H1181 H 0.79085 0.79047 0.19519
 H1182 H 0.81768 0.76561 0.21832
 H1183 H 0.68190 0.74063 0.27716
 H1184 H 0.70979 0.71702 0.29886
 H1185 H 0.78446 0.70568 0.20091
 H1186 H 0.75644 0.72526 0.17745
 H1187 H 0.74462 0.77704 0.31857
 H1188 H 0.71607 0.79783 0.29676
 O1189 O 0.69641 0.24399 0.79473
 O1190 O 0.71202 0.20501 0.79619
 O1191 O 0.75911 0.28703 0.80540
 O1192 O 0.79494 0.29224 0.78412
 O1193 O 0.70714 0.30253 0.75043
 O1194 O 0.70033 0.28706 0.71094
 O1195 O 0.81242 0.22775 0.73315
 O1196 O 0.81599 0.23599 0.77500
 O1197 O 0.75448 0.18126 0.72712
 O1198 O 0.71434 0.18143 0.73847
 O1199 O 0.76012 0.23892 0.68043
 O1200 O 0.75255 0.28172 0.68426
 O1201 O 0.79915 0.24955 0.70215
 O1202 O 0.78339 0.28973 0.70022
 O1203 O 0.73809 0.20711 0.69176
 O1204 O 0.69991 0.20318 0.71456
 O1205 O 0.78780 0.19155 0.74809
 O1206 O 0.79624 0.20984 0.78765
 O1207 O 0.68264 0.26495 0.76331
 O1208 O 0.68066 0.25726 0.72150
 O1209 O 0.74146 0.31361 0.76928
 O1210 O 0.78174 0.31212 0.75595
 O1211 O 0.73696 0.25530 0.81694
 O1212 O 0.74413 0.21355 0.81309
 Zr1213 Zr 0.73132 0.23538 0.78558
 O1214 O 0.74994 0.21300 0.76265
 Zr1215 Zr 0.76203 0.28268 0.76824
 O1216 O 0.78217 0.26225 0.74466
 Zr1217 Zr 0.71186 0.26716 0.74045
 O1218 O 0.72979 0.24634 0.71547
 Zr1219 Zr 0.78391 0.22734 0.75687
 O1220 O 0.76623 0.24847 0.78202
 Zr1221 Zr 0.73383 0.21202 0.72872
 O1222 O 0.71333 0.23214 0.75269
 Zr1223 Zr 0.76463 0.25925 0.71163
 O1224 O 0.74568 0.28203 0.73440
 O1225 O 0.72791 0.26979 0.77382
 O1226 O 0.76831 0.22448 0.72308
 C1227 C 0.68006 0.25531 0.78375
 C1228 C 0.74872 0.27450 0.82132
 C1229 C 0.72043 0.31777 0.76139
 C1230 C 0.81513 0.23743 0.71278
 C1231 C 0.77458 0.17654 0.73679
 C1232 C 0.74885 0.21948 0.67598
 H1233 H 0.75054 0.19717 0.76990
 H1234 H 0.72076 0.24646 0.70033
 H1235 H 0.71912 0.27963 0.78523
 H1236 H 0.79811 0.26949 0.74312
 H1237 H 0.82139 0.25172 0.76952
 H1238 H 0.80032 0.27822 0.79300
 H1239 H 0.69653 0.21425 0.70145
 H1240 H 0.67633 0.24112 0.72675
 H1241 H 0.78478 0.19700 0.79126
 H1242 H 0.76053 0.21900 0.81674
 H1243 H 0.73670 0.27590 0.67905
 H1244 H 0.71363 0.29782 0.70678
 H1245 H 0.70039 0.20146 0.78330
 H1246 H 0.71878 0.17770 0.75506
 H1247 H 0.77503 0.31615 0.74018
 H1248 H 0.79638 0.29295 0.71179
 C1249 C 0.08189 1.00198 1.15954
 C1250 C 0.06881 1.00846 1.17955
 C1251 C 0.07941 1.00729 1.20216
 C1252 C 0.10289 0.99937 1.20487
 C1253 C 0.11580 0.99345 1.18438
 C1254 C 0.10538 0.99452 1.16178
 C1255 C 0.07085 1.00317 1.13576
 C1256 C 0.08395 0.99661 1.11577
 C1257 C 0.07320 0.99722 1.09326
 C1258 C 0.04948 1.00429 1.09063
 C1259 C 0.03677 1.01129 1.11086
 C1260 C 0.04735 1.01069 1.13347
 C1261 C 0.11803 0.98833 1.14136
 C1262 C 0.10747 0.98931 1.11873
 C1263 C 0.04540 1.01612 1.17654
 C1264 C 0.03484 1.01718 1.15388
 H1265 H 0.13621 0.98258 1.14291
 H1266 H 0.11777 0.98424 1.10343
 H1267 H 0.03512 1.02125 1.19183
 H1268 H 0.01670 1.02305 1.15235
 H1269 H 0.06938 1.01311 1.21727
 H1270 H 0.13411 0.98813 1.18609
 H1271 H 0.08324 0.99189 1.07786
 H1272 H 0.01851 1.01678 1.10911
 C1273 C 0.58302 0.50251 0.66258
 C1274 C 0.57057 0.50962 0.68278
 C1275 C 0.58123 0.50747 0.70527
 C1276 C 0.60409 0.49790 0.70771
 C1277 C 0.61638 0.49130 0.68704
 C1278 C 0.60591 0.49338 0.66453
 C1279 C 0.57199 0.50493 0.63889
 C1280 C 0.58450 0.49784 0.61870
 C1281 C 0.57374 0.49961 0.59627
 C1282 C 0.55055 0.50830 0.59392
 C1283 C 0.53848 0.51583 0.61436
 C1284 C 0.54911 0.51412 0.63689
 C1285 C 0.61798 0.48668 0.64392
 C1286 C 0.60743 0.48883 0.62137
 C1287 C 0.54778 0.51897 0.68006
 C1288 C 0.53720 0.52114 0.65750
 H1289 H 0.63569 0.47965 0.64523
 H1290 H 0.61727 0.48334 0.60591
 H1291 H 0.53799 0.52460 0.69551
 H1292 H 0.51954 0.52829 0.65620
 H1293 H 0.57184 0.51395 0.72055
 H1294 H 0.63433 0.48487 0.68849
 H1295 H 0.58328 0.49381 0.58073
 H1296 H 0.52065 0.52257 0.61284
 C1297 C 0.42201 -0.00350 0.66124
 C1298 C 0.39725 -0.00268 0.66245
 C1299 C 0.38650 -0.00259 0.68469
 C1300 C 0.40017 -0.00319 0.70585
 C1301 C 0.42514 -0.00383 0.70420
 C1302 C 0.43608 -0.00418 0.68194
 C1303 C 0.43343 -0.00320 0.63785
 C1304 C 0.45824 -0.00393 0.63659
 C1305 C 0.46901 -0.00349 0.61429
 C1306 C 0.45514 -0.00197 0.59339
 C1307 C 0.43028 -0.00120 0.59501
 C1308 C 0.41933 -0.00191 0.61719
 C1309 C 0.46087 -0.00490 0.67997
 C1310 C 0.47176 -0.00488 0.65766
 C1311 C 0.38369 -0.00167 0.64141
 C1312 C 0.39456 -0.00126 0.61913
 H1313 H 0.47195 -0.00545 0.69579
 H1314 H 0.49092 -0.00543 0.65692
 H1315 H 0.36453 -0.00104 0.64217
 H1316 H 0.38350 -0.00033 0.60331
 H1317 H 0.36735 -0.00165 0.68565
 H1318 H 0.43633 -0.00353 0.71987
 H1319 H 0.48817 -0.00395 0.61322
 H1320 H 0.41945 -0.00022 0.57902
 C1321 C -0.08177 0.49342 1.15838
 C1322 C -0.10586 0.49877 1.16003
 C1323 C -0.11613 0.50023 1.18243
 C1324 C -0.10256 0.49673 1.20331
 C1325 C -0.07840 0.49099 1.20125
 C1326 C -0.06794 0.48939 1.17881
 C1327 C -0.07080 0.49218 1.13481
 C1328 C -0.04666 0.48690 1.13311
 C1329 C -0.03621 0.48619 1.11067
 C1330 C -0.04970 0.49091 1.09005
 C1331 C -0.07397 0.49591 1.09210
 C1332 C -0.08460 0.49655 1.11443
 C1333 C -0.04387 0.48395 1.17638
 C1334 C -0.03341 0.48272 1.15391
 C1335 C -0.11920 0.50275 1.13926
 C1336 C -0.10872 0.50170 1.11681
 H1337 H -0.03300 0.48073 1.19198
 H1338 H -0.01476 0.47860 1.15281
 H1339 H -0.13784 0.50687 1.14037
 H1340 H -0.11956 0.50505 1.10122
 H1341 H -0.13479 0.50430 1.18375
 H1342 H -0.06756 0.48763 1.21672
 H1343 H -0.01750 0.48237 1.10935
 H1344 H -0.08457 0.49945 1.07638
 C1345 C -0.08228 0.50399 0.34003
 C1346 C -0.07017 0.51359 0.32062
 C1347 C -0.08053 0.51204 0.29793
 C1348 C -0.10282 0.50090 0.29450
 C1349 C -0.11487 0.49161 0.31422
 C1350 C -0.10462 0.49302 0.33705
 C1351 C -0.07125 0.50526 0.36390
 C1352 C -0.08319 0.49539 0.38331
 C1353 C -0.07230 0.49608 0.40586
 C1354 C -0.04956 0.50642 0.40903
 C1355 C -0.03811 0.51663 0.38936
 C1356 C -0.04883 0.51604 0.36678
 C1357 C -0.11614 0.48356 0.35694
 C1358 C -0.10560 0.48471 0.37967
 C1359 C -0.04789 0.52450 0.32426
 C1360 C -0.03739 0.52569 0.34695
 H1361 H -0.13338 0.47506 0.35491
 H1362 H -0.11502 0.47705 0.39450
 H1363 H -0.03841 0.53204 0.30941
 H1364 H -0.02010 0.53409 0.34896
 H1365 H -0.07135 0.51982 0.28301
 H1366 H -0.13200 0.48297 0.31178
 H1367 H -0.08135 0.48816 0.42079
 H1368 H -0.02067 0.52471 0.39147
 C1369 C 0.41803 1.00272 -0.15862
 C1370 C 0.43188 1.00693 -0.17871
 C1371 C 0.42142 1.00510 -0.20133
 C1372 C 0.39704 0.99938 -0.20426
 C1373 C 0.38345 0.99521 -0.18363
 C1374 C 0.39390 0.99676 -0.16086
 C1375 C 0.42909 1.00452 -0.13476
 C1376 C 0.41541 0.99985 -0.11460
 C1377 C 0.42621 1.00101 -0.09198
 C1378 C 0.45052 1.00691 -0.08952
 C1379 C 0.46378 1.01199 -0.11001
 C1380 C 0.45322 1.01066 -0.13263
 C1381 C 0.38071 0.99238 -0.14024
 C1382 C 0.39128 0.99384 -0.11753
 C1383 C 0.45596 1.01312 -0.17584
 C1384 C 0.46643 1.01500 -0.15318
 H1385 H 0.36205 0.98770 -0.14167
 H1386 H 0.38048 0.99020 -0.10213
 H1387 H 0.46681 1.01652 -0.19124
 H1388 H 0.48507 1.01974 -0.15176
 H1389 H 0.43231 1.00926 -0.21649
 H1390 H 0.36498 0.98996 -0.18502
 H1391 H 0.41578 0.99711 -0.07639
 H1392 H 0.48249 1.01642 -0.10848
 C1393 C 0.58283 0.49640 -0.15664
 C1394 C 0.60442 0.50875 -0.15929
 C1395 C 0.61513 0.50939 -0.18172
 C1396 C 0.60430 0.49791 -0.20136
 C1397 C 0.58282 0.48529 -0.19820
 C1398 C 0.57197 0.48458 -0.17595
 C1399 C 0.57127 0.49597 -0.13324
 C1400 C 0.54957 0.48382 -0.13071
 C1401 C 0.53840 0.48385 -0.10857
 C1402 C 0.54876 0.49592 -0.08897
 C1403 C 0.57074 0.50777 -0.09182
 C1404 C 0.58201 0.50791 -0.11394
 C1405 C 0.55040 0.47237 -0.17265
 C1406 C 0.53938 0.47203 -0.15043
 C1407 C 0.61470 0.52037 -0.13950
 C1408 C 0.60370 0.51995 -0.11722
 H1409 H 0.54189 0.46314 -0.18743
 H1410 H 0.52267 0.46254 -0.14869
 H1411 H 0.63134 0.52996 -0.14127
 H1412 H 0.61219 0.52923 -0.10246
 H1413 H 0.63159 0.51918 -0.18395
 H1414 H 0.57461 0.47583 -0.21300
 H1415 H 0.52159 0.47457 -0.10667
 H1416 H 0.57894 0.51715 -0.07696
 C1417 C 0.08143 -0.00303 0.34067
 C1418 C 0.10298 0.00941 0.33816
 C1419 C 0.11355 0.01057 0.31570
 C1420 C 0.10263 -0.00051 0.29588
 C1421 C 0.08116 -0.01319 0.29887
 C1422 C 0.07045 -0.01441 0.32116
 C1423 C 0.07004 -0.00403 0.36412
 C1424 C 0.04837 -0.01627 0.36652
 C1425 C 0.03733 -0.01673 0.38873
 C1426 C 0.04780 -0.00505 0.40850
 C1427 C 0.06977 0.00683 0.40579
 C1428 C 0.08091 0.00747 0.38362
 C1429 C 0.04892 -0.02672 0.32432
 C1430 C 0.03804 -0.02761 0.34661
 C1431 C 0.11340 0.02057 0.35814
 C1432 C 0.10256 0.01961 0.38048
 H1433 H 0.04031 -0.03562 0.30939
 H1434 H 0.02136 -0.03715 0.34824
 H1435 H 0.13002 0.03022 0.35648
 H1436 H 0.11114 0.02855 0.39540
 H1437 H 0.13001 0.02039 0.31361
 H1438 H 0.07289 -0.02237 0.28393
 H1439 H 0.02051 -0.02602 0.39053
 H1440 H 0.07805 0.01592 0.42079
 C1441 C 0.16173 1.07912 1.00378
 C1442 C 0.16367 1.10252 0.99595
 C1443 C 0.18607 1.11328 0.99488
 C1444 C 0.20666 1.10082 1.00119
 C1445 C 0.20425 1.07741 1.00947
 C1446 C 0.18185 1.06647 1.01063
 C1447 C 0.13816 1.06771 1.00494
 C1448 C 0.13618 1.04430 1.01279
 C1449 C 0.11376 1.03335 1.01334
 C1450 C 0.09345 1.04565 1.00596
 C1451 C 0.09577 1.06930 0.99858
 C1452 C 0.11808 1.08040 0.99800
 C1453 C 0.17914 1.04313 1.01863
 C1454 C 0.15668 1.03221 1.01966
 C1455 C 0.14316 1.11475 0.98940
 C1456 C 0.12072 1.10384 0.99036
 H1457 H 0.19451 1.03317 1.02404
 H1458 H 0.15537 1.01414 1.02578
 H1459 H 0.14447 1.13285 0.98337
 H1460 H 0.10534 1.11381 0.98500
 H1461 H 0.18755 1.13153 0.98927
 H1462 H 0.21945 1.06770 1.01555
 H1463 H 0.11224 1.01516 1.01908
 H1464 H 0.08030 1.07901 0.99296
 C1465 C 0.66218 0.58210 0.50110
 C1466 C 0.66446 0.60470 0.49128
 C1467 C 0.68704 0.61498 0.48930
 C1468 C 0.70743 0.60277 0.49669
 C1469 C 0.70467 0.58019 0.50692
 C1470 C 0.68212 0.56972 0.50896
 C1471 C 0.63841 0.57134 0.50353
 C1472 C 0.63609 0.54877 0.51348
 C1473 C 0.61348 0.53841 0.51529
 C1474 C 0.59330 0.55045 0.50713
 C1475 C 0.59598 0.57331 0.49766
 C1476 C 0.61849 0.58381 0.49578
 C1477 C 0.67907 0.54724 0.51902
 C1478 C 0.65644 0.53691 0.52119
 C1479 C 0.64411 0.61673 0.48388
 C1480 C 0.62149 0.60642 0.48604
 H1481 H 0.69431 0.53752 0.52523
 H1482 H 0.65487 0.51949 0.52893
 H1483 H 0.64568 0.63422 0.47631
 H1484 H 0.60623 0.61622 0.48002
 H1485 H 0.68872 0.63276 0.48243
 H1486 H 0.71974 0.57093 0.51403
 H1487 H 0.61170 0.52083 0.52264
 H1488 H 0.58063 0.58281 0.49135
 C1489 C 0.65773 0.41956 -0.00889
 C1490 C 0.65831 0.39492 -0.00713
 C1491 C 0.68016 0.38370 -0.00699
 C1492 C 0.70177 0.39668 -0.00885
 C1493 C 0.70064 0.42166 -0.01014
 C1494 C 0.67870 0.43307 -0.01043
 C1495 C 0.63470 0.43148 -0.00843
 C1496 C 0.63403 0.45620 -0.00982
 C1497 C 0.61207 0.46745 -0.00896
 C1498 C 0.59097 0.45410 -0.00636
 C1499 C 0.59202 0.42931 -0.00515
 C1500 C 0.61381 0.41792 -0.00619
 C1501 C 0.67732 0.45779 -0.01186
 C1502 C 0.65537 0.46916 -0.01165
 C1503 C 0.63703 0.38192 -0.00518
 C1504 C 0.61513 0.39323 -0.00473
 H1505 H 0.69336 0.46847 -0.01308
 H1506 H 0.65511 0.48825 -0.01271
 H1507 H 0.63732 0.36284 -0.00383
 H1508 H 0.59912 0.38259 -0.00304
 H1509 H 0.68043 0.36466 -0.00500
 H1510 H 0.71652 0.43255 -0.01020
 H1511 H 0.61147 0.48655 -0.00980
 H1512 H 0.57590 0.41884 -0.00334
 C1513 C 0.15819 -0.07858 0.49314
 C1514 C 0.17847 -0.06469 0.48872
 C1515 C 0.20089 -0.07505 0.48986
 C1516 C 0.20312 -0.09919 0.49551
 C1517 C 0.18236 -0.11284 0.49933
 C1518 C 0.15997 -0.10266 0.49835
 C1519 C 0.13465 -0.06767 0.49253
 C1520 C 0.11443 -0.08152 0.49737
 C1521 C 0.09216 -0.07092 0.49742
 C1522 C 0.09002 -0.04664 0.49267
 C1523 C 0.11049 -0.03312 0.48743
 C1524 C 0.13286 -0.04353 0.48746
 C1525 C 0.13933 -0.11605 0.50275
 C1526 C 0.11693 -0.10564 0.50230
 C1527 C 0.17592 -0.04062 0.48346
 C1528 C 0.15349 -0.03022 0.48283
 H1529 H 0.14052 -0.13469 0.50677
 H1530 H 0.10147 -0.11654 0.50599
 H1531 H 0.19139 -0.02968 0.47995
 H1532 H 0.15233 -0.01158 0.47885
 H1533 H 0.21623 -0.06409 0.48632
 H1534 H 0.18378 -0.13147 0.50340
 H1535 H 0.07656 -0.08156 0.50133
 H1536 H 0.10913 -0.01442 0.48378
 C1537 C 0.33972 -0.07789 0.50166
 C1538 C 0.32029 -0.06564 0.51063
 C1539 C 0.29765 -0.07610 0.50918
 C1540 C 0.29426 -0.09864 0.49877
 C1541 C 0.31402 -0.11076 0.49005
 C1542 C 0.33679 -0.10042 0.49137
 C1543 C 0.36358 -0.06687 0.50304
 C1544 C 0.38303 -0.07901 0.49394
 C1545 C 0.40563 -0.06827 0.49496
 C1546 C 0.40884 -0.04549 0.50494
 C1547 C 0.38907 -0.03374 0.51423
 C1548 C 0.36644 -0.04432 0.51328
 C1549 C 0.35671 -0.11208 0.48257
 C1550 C 0.37942 -0.10156 0.48382
 C1551 C 0.32389 -0.04318 0.52092
 C1552 C 0.34657 -0.03270 0.52221
 H1553 H 0.35473 -0.12947 0.47459
 H1554 H 0.39427 -0.11115 0.47674
 H1555 H 0.30903 -0.03358 0.52796
 H1556 H 0.34854 -0.01531 0.53019
 H1557 H 0.28275 -0.06681 0.51655
 H1558 H 0.31167 -0.12807 0.48198
 H1559 H 0.42061 -0.07756 0.48775
 H1560 H 0.39119 -0.01627 0.52200
 C1561 C -0.16409 0.41460 0.99313
 C1562 C -0.18420 0.42876 0.99395
 C1563 C -0.20676 0.41814 0.99228
 C1564 C -0.20969 0.39328 0.99024
 C1565 C -0.18897 0.37944 0.98925
 C1566 C -0.16625 0.39001 0.99059
 C1567 C -0.14031 0.42576 0.99521
 C1568 C -0.12009 0.41167 0.99413
 C1569 C -0.09751 0.42244 0.99592
 C1570 C -0.09512 0.44712 0.99910
 C1571 C -0.11570 0.46088 1.00039
 C1572 C -0.13827 0.45034 0.99829
 C1573 C -0.14559 0.37646 0.98960
 C1574 C -0.12293 0.38709 0.99126
 C1575 C -0.18143 0.45332 0.99688
 C1576 C -0.15887 0.46392 0.99908
 H1577 H -0.14693 0.35744 0.98757
 H1578 H -0.10751 0.37597 0.99040
 H1579 H -0.19685 0.46447 0.99762
 H1580 H -0.15755 0.48290 1.00139
 H1581 H -0.22190 0.42949 0.99391
 H1582 H -0.19010 0.36050 0.98699
 H1583 H -0.08185 0.41164 0.99496
 H1584 H -0.11417 0.47988 1.00260
 C1585 C -0.15735 0.58152 0.49653
 C1586 C -0.17666 0.57073 0.48463
 C1587 C -0.19887 0.58139 0.48543
 C1588 C -0.20196 0.60261 0.49820
 C1589 C -0.18232 0.61334 0.50982
 C1590 C -0.15996 0.60283 0.50908
 C1591 C -0.13399 0.57020 0.49593
 C1592 C -0.11467 0.58090 0.50792
 C1593 C -0.09258 0.56985 0.50762
 C1594 C -0.08978 0.54814 0.49558
 C1595 C -0.10938 0.53783 0.48345
 C1596 C -0.13149 0.54878 0.48357
 C1597 C -0.14017 0.61307 0.52076
 C1598 C -0.11791 0.60230 0.52017
 C1599 C -0.17341 0.54944 0.47221
 C1600 C -0.15121 0.53863 0.47172
 H1601 H -0.14191 0.62951 0.53050
 H1602 H -0.10314 0.61075 0.52949
 H1603 H -0.18819 0.54098 0.46291
 H1604 H -0.14950 0.52214 0.46207
 H1605 H -0.21365 0.57328 0.47584
 H1606 H -0.18451 0.62961 0.51974
 H1607 H -0.07771 0.57800 0.51705
 H1608 H -0.10750 0.52123 0.47402
 C1609 C 0.34218 1.08173 -0.00041
 C1610 C 0.32283 1.07064 -0.01196
 C1611 C 0.30051 1.08101 -0.01084
 C1612 C 0.29735 1.10224 0.00188
 C1613 C 0.31702 1.11333 0.01308
 C1614 C 0.33951 1.10307 0.01207
 C1615 C 0.36566 1.07066 -0.00128
 C1616 C 0.38502 1.08159 0.01042
 C1617 C 0.40721 1.07073 0.00992
 C1618 C 0.41005 1.04898 -0.00204
 C1619 C 0.39041 1.03848 -0.01392
 C1620 C 0.36821 1.04922 -0.01358
 C1621 C 0.35936 1.11358 0.02340
 C1622 C 0.38172 1.10303 0.02259
 C1623 C 0.32613 1.04935 -0.02434
 C1624 C 0.34844 1.03880 -0.02512
 H1625 H 0.35757 1.13005 0.03308
 H1626 H 0.39653 1.11167 0.03168
 H1627 H 0.31132 1.04068 -0.03338
 H1628 H 0.35020 1.02228 -0.03472
 H1629 H 0.28567 1.07265 -0.02013
 H1630 H 0.31478 1.12965 0.02289
 H1631 H 0.42213 1.07903 0.01916
 H1632 H 0.39231 1.02184 -0.02330
 C1633 C 0.00391 1.15662 1.07878
 C1634 C -0.00482 1.15858 1.10192
 C1635 C -0.00646 1.18095 1.11237
 C1636 C 0.00019 1.20147 1.09983
 C1637 C 0.00940 1.19904 1.07671
 C1638 C 0.01111 1.17668 1.06607
 C1639 C 0.00573 1.13309 1.06772
 C1640 C 0.01449 1.13109 1.04456
 C1641 C 0.01566 1.10870 1.03392
 C1642 C 0.00801 1.08842 1.04626
 C1643 C -0.00028 1.09078 1.06969
 C1644 C -0.00150 1.11305 1.08047
 C1645 C 0.02003 1.17396 1.04301
 C1646 C 0.02165 1.15155 1.03241
 C1647 C -0.01166 1.13811 1.11423
 C1648 C -0.01007 1.11572 1.10365
 H1649 H 0.02571 1.18930 1.03302
 H1650 H 0.02848 1.15024 1.01454
 H1651 H -0.01839 1.13943 1.13214
 H1652 H -0.01566 1.10037 1.11368
 H1653 H -0.01272 1.18243 1.13046
 H1654 H 0.01584 1.21420 1.06704
 H1655 H 0.02210 1.10716 1.01591
 H1656 H -0.00614 1.07535 1.07945
 C1657 C 0.50268 0.66270 0.58121
 C1658 C 0.51007 0.68259 0.56834
 C1659 C 0.50830 0.70510 0.57867
 C1660 C 0.49889 0.70783 0.60166
 C1661 C 0.49184 0.68749 0.61430
 C1662 C 0.49355 0.66498 0.60416
 C1663 C 0.50481 0.63900 0.57059
 C1664 C 0.49748 0.61913 0.58354
 C1665 C 0.49908 0.59667 0.57319
 C1666 C 0.50783 0.59398 0.54998
 C1667 C 0.51557 0.61412 0.53744
 C1668 C 0.51405 0.63667 0.54766
 C1669 C 0.48655 0.64469 0.61666
 C1670 C 0.48844 0.62213 0.60650
 C1671 C 0.51941 0.67954 0.54549
 C1672 C 0.52131 0.65697 0.53530
 H1673 H 0.47952 0.64626 0.63443
 H1674 H 0.48274 0.60693 0.61668
 H1675 H 0.52524 0.69474 0.53537
 H1676 H 0.52849 0.65540 0.51759
 H1677 H 0.51498 0.72013 0.56894
 H1678 H 0.48543 0.68919 0.63231
 H1679 H 0.49309 0.58137 0.58308
 H1680 H 0.52236 0.61234 0.51959
 C1681 C -0.00474 0.65891 0.42092
 C1682 C 0.00339 0.66104 0.39758
 C1683 C 0.00407 0.68329 0.38707
 C1684 C -0.00311 0.70359 0.39962
 C1685 C -0.01154 0.70102 0.42302
 C1686 C -0.01226 0.67871 0.43376
 C1687 C -0.00546 0.63545 0.43207
 C1688 C -0.01355 0.63325 0.45545
 C1689 C -0.01377 0.61094 0.46611
 C1690 C -0.00590 0.59096 0.45353
 C1691 C 0.00179 0.59352 0.42994
 C1692 C 0.00209 0.61571 0.41916
 C1693 C -0.02043 0.67577 0.45708
 C1694 C -0.02103 0.65343 0.46776
 C1695 C 0.01064 0.64087 0.38515
 C1696 C 0.01002 0.61856 0.39577
 H1697 H -0.02634 0.69088 0.46719
 H1698 H -0.02734 0.65195 0.48581
 H1699 H 0.01691 0.64236 0.36708
 H1700 H 0.01586 0.60344 0.38563
 H1701 H 0.01009 0.68491 0.36890
 H1702 H -0.01793 0.71596 0.43292
 H1703 H -0.01978 0.60923 0.48426
 H1704 H 0.00782 0.57833 0.42001
 C1705 C 0.49222 1.15988 -0.07720
 C1706 C 0.49604 1.16148 -0.10171
 C1707 C 0.49681 1.18372 -0.11228
 C1708 C 0.49414 1.20451 -0.09865
 C1709 C 0.48991 1.20249 -0.07404
 C1710 C 0.48899 1.18020 -0.06326
 C1711 C 0.49194 1.13648 -0.06589
 C1712 C 0.48833 1.13484 -0.04132
 C1713 C 0.48865 1.11257 -0.03056
 C1714 C 0.49281 1.09210 -0.04420
 C1715 C 0.49608 1.09411 -0.06889
 C1716 C 0.49566 1.11624 -0.07982
 C1717 C 0.48517 1.17782 -0.03875
 C1718 C 0.48482 1.15552 -0.02796
 C1719 C 0.49932 1.14082 -0.11514
 C1720 C 0.49917 1.11856 -0.10436
 H1721 H 0.48259 1.19333 -0.02776
 H1722 H 0.48199 1.15448 -0.00898
 H1723 H 0.50224 1.14188 -0.13410
 H1724 H 0.50198 1.10306 -0.11530
 H1725 H 0.49989 1.18500 -0.13123
 H1726 H 0.48743 1.21789 -0.06303
 H1727 H 0.48615 1.11128 -0.01154
 H1728 H 0.49912 1.07850 -0.07962
 C1729 C 0.50256 0.34069 -0.07985
 C1730 C 0.51184 0.32140 -0.06749
 C1731 C 0.50991 0.29877 -0.07759
 C1732 C 0.49872 0.29527 -0.09989
 C1733 C 0.48976 0.31487 -0.11218
 C1734 C 0.49153 0.33763 -0.10218
 C1735 C 0.50425 0.36450 -0.06909
 C1736 C 0.49467 0.38377 -0.08126
 C1737 C 0.49571 0.40627 -0.07062
 C1738 C 0.50611 0.40953 -0.04788
 C1739 C 0.51606 0.38999 -0.03621
 C1740 C 0.51510 0.36746 -0.04669
 C1741 C 0.48239 0.35739 -0.11394
 C1742 C 0.48392 0.38006 -0.10366
 C1743 C 0.52285 0.32512 -0.04523
 C1744 C 0.52444 0.34776 -0.03500
 H1745 H 0.47386 0.35531 -0.13118
 H1746 H 0.47648 0.39478 -0.11326
 H1747 H 0.53015 0.31038 -0.03556
 H1748 H 0.53290 0.34983 -0.01772
 H1749 H 0.51745 0.28396 -0.06822
 H1750 H 0.48111 0.31241 -0.12931
 H1751 H 0.48799 0.42109 -0.07984
 H1752 H 0.52419 0.39216 -0.01878
 C1753 C -0.00056 -0.16046 0.41822
 C1754 C 0.00796 -0.17993 0.43082
 C1755 C 0.00583 -0.20253 0.42067
 C1756 C -0.00490 -0.20588 0.39808
 C1757 C -0.01306 -0.18604 0.38560
 C1758 C -0.01106 -0.16331 0.39563
 C1759 C 0.00149 -0.13665 0.42893
 C1760 C -0.00724 -0.11718 0.41645
 C1761 C -0.00582 -0.09466 0.42701
 C1762 C 0.00414 -0.09156 0.44997
 C1763 C 0.01324 -0.11133 0.46197
 C1764 C 0.01189 -0.13388 0.45157
 C1765 C -0.01937 -0.14335 0.38357
 C1766 C -0.01752 -0.12069 0.39381
 C1767 C 0.01852 -0.17642 0.45332
 C1768 C 0.02043 -0.15378 0.46353
 H1769 H -0.02749 -0.14528 0.36612
 H1770 H -0.02431 -0.10582 0.38397
 H1771 H 0.02525 -0.19131 0.46319
 H1772 H 0.02853 -0.15188 0.48100
 H1773 H 0.01303 -0.21738 0.43022
 H1774 H -0.02111 -0.18820 0.36821
 H1775 H -0.01288 -0.07967 0.41753
 H1776 H 0.02100 -0.10929 0.47958
 C1777 C 0.50009 -0.15671 0.58115
 C1778 C 0.51224 -0.15965 0.60282
 C1779 C 0.51295 -0.18219 0.61312
 C1780 C 0.50169 -0.20165 0.60180
 C1781 C 0.48942 -0.19824 0.58015
 C1782 C 0.48863 -0.17587 0.56973
 C1783 C 0.49935 -0.13313 0.57017
 C1784 C 0.48727 -0.13028 0.54846
 C1785 C 0.48683 -0.10792 0.53793
 C1786 C 0.49835 -0.08839 0.54892
 C1787 C 0.51022 -0.09156 0.57087
 C1788 C 0.51082 -0.11392 0.58152
 C1789 C 0.47657 -0.17228 0.54811
 C1790 C 0.47593 -0.14987 0.53764
 C1791 C 0.52346 -0.14000 0.61369
 C1792 C 0.52276 -0.11753 0.60323
 H1793 H 0.46762 -0.18693 0.53916
 H1794 H 0.46651 -0.14789 0.52091
 H1795 H 0.53290 -0.14199 0.63041
 H1796 H 0.53169 -0.10287 0.61220
 H1797 H 0.52247 -0.18460 0.62972
 H1798 H 0.48010 -0.21288 0.57157
 H1799 H 0.47755 -0.10580 0.52113
 H1800 H 0.51919 -0.07675 0.57953
 C1801 C -0.00231 0.33650 1.07848
 C1802 C -0.01315 0.31696 1.06715
 C1803 C -0.01188 0.29473 1.07783
 C1804 C 0.00031 0.29186 1.09962
 C1805 C 0.01090 0.31171 1.11086
 C1806 C 0.00969 0.33409 1.10033
 C1807 C -0.00351 0.35992 1.06722
 C1808 C 0.00736 0.37948 1.07851
 C1809 C 0.00636 0.40167 1.06761
 C1810 C -0.00530 0.40437 1.04548
 C1811 C -0.01623 0.38450 1.03453
 C1812 C -0.01540 0.36227 1.04533
 C1813 C 0.02029 0.35411 1.11111
 C1814 C 0.01913 0.37642 1.10040
 C1815 C -0.02506 0.32002 1.04535
 C1816 C -0.02614 0.34229 1.03461
 H1817 H 0.02959 0.35253 1.12796
 H1818 H 0.02759 0.39139 1.10929
 H1819 H -0.03354 0.30506 1.03647
 H1820 H -0.03541 0.34386 1.01774
 H1821 H -0.02071 0.27977 1.06930
 H1822 H 0.02033 0.30971 1.12758
 H1823 H 0.01489 0.41675 1.07626
 H1824 H -0.02533 0.38629 1.01758
 C1825 C 0.75965 0.33283 0.08843
 C1826 C 0.76865 0.32082 0.06862
 C1827 C 0.76639 0.33088 0.04580
 C1828 C 0.75430 0.35238 0.04277
 C1829 C 0.74668 0.36457 0.06330
 C1830 C 0.74909 0.35489 0.08594
 C1831 C 0.76051 0.32180 0.11215
 C1832 C 0.75091 0.33370 0.13172
 C1833 C 0.75058 0.32270 0.15396
 C1834 C 0.75953 0.29979 0.15681
 C1835 C 0.76972 0.28835 0.13705
 C1836 C 0.77016 0.29927 0.11466
 C1837 C 0.74036 0.36659 0.10604
 C1838 C 0.74126 0.35618 0.12855
 C1839 C 0.77883 0.29854 0.07200
 C1840 C 0.77954 0.28795 0.09458
 H1841 H 0.73230 0.38375 0.10428
 H1842 H 0.73393 0.36561 0.14351
 H1843 H 0.78589 0.28899 0.05698
 H1844 H 0.78716 0.27059 0.09626
 H1845 H 0.77237 0.32105 0.03049
 H1846 H 0.73877 0.38182 0.06184
 H1847 H 0.74283 0.33182 0.16891
 H1848 H 0.77682 0.27077 0.13893
 C1849 C 0.26167 0.83293 0.59248
 C1850 C 0.26672 0.81971 0.57195
 C1851 C 0.26425 0.83025 0.54948
 C1852 C 0.25638 0.85364 0.54767
 C1853 C 0.25256 0.86691 0.56851
 C1854 C 0.25491 0.85661 0.59091
 C1855 C 0.26247 0.82153 0.61599
 C1856 C 0.25641 0.83454 0.63632
 C1857 C 0.25588 0.82331 0.65845
 C1858 C 0.26134 0.79919 0.66038
 C1859 C 0.26808 0.78659 0.63986
 C1860 C 0.26847 0.79764 0.61758
 C1861 C 0.24972 0.86927 0.61172
 C1862 C 0.25043 0.85841 0.63404
 C1863 C 0.27323 0.79597 0.57435
 C1864 C 0.27413 0.78514 0.59677
 H1865 H 0.24457 0.88760 0.61068
 H1866 H 0.24586 0.86868 0.64960
 H1867 H 0.27725 0.78555 0.55874
 H1868 H 0.27887 0.76670 0.59776
 H1869 H 0.26717 0.81999 0.53348
 H1870 H 0.24694 0.88509 0.56722
 H1871 H 0.25090 0.83327 0.67408
 H1872 H 0.27233 0.76803 0.64106
 C1873 C 0.75733 0.68199 0.58317
 C1874 C 0.74277 0.69096 0.56506
 C1875 C 0.74356 0.68080 0.54233
 C1876 C 0.75866 0.66182 0.53779
 C1877 C 0.77419 0.65396 0.55564
 C1878 C 0.77337 0.66381 0.57856
 C1879 C 0.75470 0.69083 0.60770
 C1880 C 0.76831 0.68098 0.62605
 C1881 C 0.76521 0.68893 0.64945
 C1882 C 0.74877 0.70674 0.65453
 C1883 C 0.73533 0.71646 0.63583
 C1884 C 0.73812 0.70846 0.61241
 C1885 C 0.78714 0.65485 0.59731
 C1886 C 0.78465 0.66329 0.62065
 C1887 C 0.72670 0.70889 0.57038
 C1888 C 0.72450 0.71758 0.59365
 H1889 H 0.79955 0.64083 0.59400
 H1890 H 0.79535 0.65566 0.63465
 H1891 H 0.71541 0.71596 0.55653
 H1892 H 0.71171 0.73124 0.59705
 H1893 H 0.73125 0.68643 0.52863
 H1894 H 0.78528 0.63886 0.55226
 H1895 H 0.77588 0.68151 0.66361
 H1896 H 0.72267 0.73018 0.63948
 C1897 C 0.25615 0.18321 0.08518
 C1898 C 0.27270 0.16546 0.08067
 C1899 C 0.27337 0.15508 0.05798
 C1900 C 0.25718 0.16194 0.04029
 C1901 C 0.24156 0.18054 0.04468
 C1902 C 0.24092 0.19124 0.06717
 C1903 C 0.25370 0.19251 0.10955
 C1904 C 0.23662 0.20967 0.11422
 C1905 C 0.23394 0.21800 0.13755
 C1906 C 0.24793 0.20900 0.15620
 C1907 C 0.26492 0.19171 0.15115
 C1908 C 0.26794 0.18347 0.12786
 C1909 C 0.22437 0.20877 0.07240
 C1910 C 0.22235 0.21792 0.09551
 C1911 C 0.28713 0.15739 0.09933
 C1912 C 0.28478 0.16624 0.12254
 H1913 H 0.21257 0.21512 0.05862
 H1914 H 0.20916 0.23121 0.09886
 H1915 H 0.29994 0.14371 0.09610
 H1916 H 0.29598 0.15925 0.13650
 H1917 H 0.28488 0.14027 0.05475
 H1918 H 0.22877 0.18540 0.03111
 H1919 H 0.22085 0.23133 0.14120
 H1920 H 0.27603 0.18486 0.16528
 C1921 C 0.26736 0.17485 0.91155
 C1922 C 0.26597 0.15009 0.91249
 C1923 C 0.26355 0.13910 0.93451
 C1924 C 0.26216 0.15265 0.95543
 C1925 C 0.26484 0.17736 0.95450
 C1926 C 0.26721 0.18863 0.93241
 C1927 C 0.26758 0.18654 0.88820
 C1928 C 0.26780 0.21133 0.88707
 C1929 C 0.26644 0.22231 0.86475
 C1930 C 0.26434 0.20855 0.84385
 C1931 C 0.26487 0.18374 0.84539
 C1932 C 0.26641 0.17266 0.86746
 C1933 C 0.26820 0.21338 0.93060
 C1934 C 0.26853 0.22453 0.90833
 C1935 C 0.26579 0.13682 0.89134
 C1936 C 0.26601 0.14793 0.86917
 H1937 H 0.26817 0.22424 0.94652
 H1938 H 0.26880 0.24366 0.90774
 H1939 H 0.26483 0.11771 0.89191
 H1940 H 0.26528 0.13708 0.85324
 H1941 H 0.26151 0.12005 0.93534
 H1942 H 0.26356 0.18774 0.97067
 H1943 H 0.26605 0.24141 0.86369
 H1944 H 0.26363 0.17300 0.82939
 C1945 C 0.77084 0.67779 0.40930
 C1946 C 0.76948 0.69137 0.43023
 C1947 C 0.76648 0.67983 0.45210
 C1948 C 0.76437 0.65507 0.45274
 C1949 C 0.76692 0.64175 0.43181
 C1950 C 0.77000 0.65299 0.41001
 C1951 C 0.77165 0.68970 0.38608
 C1952 C 0.77158 0.67599 0.36522
 C1953 C 0.77035 0.68721 0.34321
 C1954 C 0.76900 0.71198 0.34184
 C1955 C 0.77017 0.72563 0.36286
 C1956 C 0.77120 0.71449 0.38513
 C1957 C 0.77099 0.63993 0.38877
 C1958 C 0.77178 0.65125 0.36673
 C1959 C 0.76991 0.71614 0.42864
 C1960 C 0.77078 0.72751 0.40649
 H1961 H 0.77048 0.62080 0.38916
 H1962 H 0.77189 0.64054 0.35071
 H1963 H 0.76895 0.72685 0.44462
 H1964 H 0.77052 0.74663 0.40606
 H1965 H 0.76428 0.69003 0.46828
 H1966 H 0.76526 0.62265 0.43244
 H1967 H 0.76980 0.67660 0.32710
 H1968 H 0.76910 0.74470 0.36190
 C1969 C 0.25657 0.81666 0.41793
 C1970 C 0.24032 0.80874 0.43496
 C1971 C 0.23970 0.82015 0.45714
 C1972 C 0.25509 0.83935 0.46223
 C1973 C 0.27218 0.84621 0.44554
 C1974 C 0.27280 0.83509 0.42316
 C1975 C 0.25551 0.80651 0.39368
 C1976 C 0.27072 0.81544 0.37621
 C1977 C 0.26882 0.80656 0.35289
 C1978 C 0.25191 0.78879 0.34700
 C1979 C 0.23707 0.77979 0.36493
 C1980 C 0.23865 0.78874 0.38822
 C1981 C 0.28825 0.84302 0.40538
 C1982 C 0.28722 0.83337 0.38232
 C1983 C 0.22408 0.79055 0.42898
 C1984 C 0.22333 0.78065 0.40604
 H1985 H 0.30086 0.85721 0.40916
 H1986 H 0.29916 0.84033 0.36903
 H1987 H 0.21150 0.78427 0.44199
 H1988 H 0.21028 0.76691 0.40207
 H1989 H 0.22617 0.81527 0.46982
 H1990 H 0.28347 0.86149 0.44914
 H1991 H 0.28048 0.81350 0.33935
 H1992 H 0.22395 0.76620 0.36066
 C1993 C 0.75138 0.30869 0.91812
 C1994 C 0.77125 0.32151 0.92673
 C1995 C 0.77033 0.33250 0.94929
 C1996 C 0.74904 0.33203 0.96224
 C1997 C 0.72990 0.31784 0.95380
 C1998 C 0.73097 0.30613 0.93189
 C1999 C 0.75129 0.29901 0.89365
 C2000 C 0.73118 0.28662 0.88504
 C2001 C 0.73076 0.27824 0.86154
 C2002 C 0.74992 0.28282 0.84635
 C2003 C 0.77001 0.29530 0.85524
 C2004 C 0.77087 0.30323 0.87902
 C2005 C 0.71141 0.29316 0.92287
 C2006 C 0.71158 0.28340 0.89991
 C2007 C 0.79094 0.32446 0.91185
 C2008 C 0.79069 0.31562 0.88840
 H2009 H 0.69560 0.29098 0.93345
 H2010 H 0.69598 0.27383 0.89351
 H2011 H 0.80639 0.33433 0.91813
 H2012 H 0.80603 0.31884 0.87739
 H2013 H 0.78504 0.34361 0.95525
 H2014 H 0.71358 0.31697 0.96380
 H2015 H 0.71519 0.26879 0.85482
 H2016 H 0.78493 0.29869 0.84372
 C2017 C 0.81555 0.41761 0.25588
 C2018 C 0.83443 0.42289 0.27161
 C2019 C 0.84457 0.44571 0.27170
 C2020 C 0.83628 0.46282 0.25575
 C2021 C 0.81658 0.45764 0.24102
 C2022 C 0.80616 0.43500 0.24093
 C2023 C 0.80648 0.39308 0.25387
 C2024 C 0.78824 0.38766 0.23747
 C2025 C 0.78011 0.36423 0.23514
 C2026 C 0.79026 0.34615 0.24886
 C2027 C 0.80864 0.35192 0.26518
 C2028 C 0.81677 0.37538 0.26779
 C2029 C 0.78758 0.42899 0.22511
 C2030 C 0.77870 0.40574 0.22349
 C2031 C 0.84382 0.40483 0.28574
 C2032 C 0.83513 0.38149 0.28387
 H2033 H 0.78017 0.44226 0.21352
 H2034 H 0.76457 0.40179 0.21082
 H2035 H 0.85838 0.40865 0.29794
 H2036 H 0.84314 0.36804 0.29482
 H2037 H 0.86026 0.44946 0.28243
 H2038 H 0.81066 0.47067 0.22830
 H2039 H 0.76599 0.36007 0.22251
 H2040 H 0.81644 0.33825 0.27602
 C2041 C 0.31515 0.91791 0.75776
 C2042 C 0.30764 0.93452 0.74096
 C2043 C 0.31867 0.95687 0.74060
 C2044 C 0.33709 0.96255 0.75678
 C2045 C 0.34336 0.94634 0.77452
 C2046 C 0.33267 0.92377 0.77485
 C2047 C 0.30562 0.89350 0.75642
 C2048 C 0.31424 0.87648 0.77221
 C2049 C 0.30599 0.85304 0.77011
 C2050 C 0.28909 0.84659 0.75247
 C2051 C 0.28038 0.86402 0.73702
 C2052 C 0.28876 0.88744 0.73877
 C2053 C 0.34025 0.90642 0.79086
 C2054 C 0.33121 0.88318 0.78954
 C2055 C 0.29036 0.92794 0.72390
 C2056 C 0.28099 0.90484 0.72290
 H2057 H 0.35374 0.91067 0.80411
 H2058 H 0.33789 0.87024 0.80193
 H2059 H 0.28440 0.94063 0.71088
 H2060 H 0.26795 0.90042 0.70925
 H2061 H 0.31424 0.96922 0.72664
 H2062 H 0.35801 0.95050 0.78653
 H2063 H 0.31262 0.83986 0.78228
 H2064 H 0.26743 0.85928 0.72337
 C2065 C 0.17602 0.91083 0.26671
 C2066 C 0.15118 0.91186 0.26557
 C2067 C 0.14042 0.93377 0.26301
 C2068 C 0.15426 0.95451 0.26123
 C2069 C 0.17905 0.95350 0.26363
 C2070 C 0.19010 0.93152 0.26615
 C2071 C 0.18746 0.88758 0.26710
 C2072 C 0.21231 0.88636 0.26713
 C2073 C 0.22304 0.86411 0.26603
 C2074 C 0.20897 0.84337 0.26434
 C2075 C 0.18410 0.84502 0.26499
 C2076 C 0.17327 0.86701 0.26632
 C2077 C 0.21492 0.92962 0.26693
 C2078 C 0.22583 0.90744 0.26746
 C2079 C 0.13761 0.89088 0.26575
 C2080 C 0.14848 0.86881 0.26612
 H2081 H 0.22602 0.94540 0.26659
 H2082 H 0.24500 0.90679 0.26757
 H2083 H 0.11843 0.89152 0.26497
 H2084 H 0.13739 0.85302 0.26568
 H2085 H 0.12130 0.93467 0.26114
 H2086 H 0.18967 0.96952 0.26201
 H2087 H 0.24219 0.86298 0.26554
 H2088 H 0.17312 0.82914 0.26407
 C2089 C 0.67772 0.40901 0.76878
 C2090 C 0.69190 0.42959 0.76759
 C2091 C 0.68091 0.45164 0.76523
 C2092 C 0.65607 0.45282 0.76364
 C2093 C 0.64217 0.43218 0.76603
 C2094 C 0.65287 0.41021 0.76842
 C2095 C 0.68902 0.38567 0.76896
 C2096 C 0.67468 0.36519 0.76876
 C2097 C 0.68531 0.34312 0.76711
 C2098 C 0.71012 0.34128 0.76556
 C2099 C 0.72439 0.36192 0.76677
 C2100 C 0.71384 0.38427 0.76817
 C2101 C 0.63919 0.38932 0.76920
 C2102 C 0.64992 0.36717 0.76936
 C2103 C 0.71670 0.42752 0.76758
 C2104 C 0.72748 0.40526 0.76791
 H2105 H 0.62001 0.39008 0.76903
 H2106 H 0.63872 0.35145 0.76936
 H2107 H 0.72788 0.44321 0.76674
 H2108 H 0.74664 0.40449 0.76737
 H2109 H 0.69157 0.46756 0.76312
 H2110 H 0.62302 0.43319 0.76472
 H2111 H 0.67421 0.32731 0.76654
 H2112 H 0.74348 0.36063 0.76555
 C2113 C 0.68406 0.58320 0.75741
 C2114 C 0.69333 0.56516 0.74320
 C2115 C 0.68316 0.54246 0.74421
 C2116 C 0.66386 0.53786 0.75917
 C2117 C 0.65570 0.55568 0.77438
 C2118 C 0.66556 0.57857 0.77334
 C2119 C 0.69290 0.60767 0.75449
 C2120 C 0.68274 0.62593 0.76771
 C2121 C 0.69068 0.64926 0.76431
 C2122 C 0.70878 0.65438 0.74794
 C2123 C 0.71881 0.63576 0.73490
 C2124 C 0.71083 0.61241 0.73799
 C2125 C 0.65630 0.59723 0.78673
 C2126 C 0.66475 0.62051 0.78397
 C2127 C 0.71156 0.57051 0.72721
 C2128 C 0.72024 0.59372 0.72474
 H2129 H 0.64204 0.59391 0.79906
 H2130 H 0.65686 0.63443 0.79438
 H2131 H 0.71886 0.55673 0.71619
 H2132 H 0.73414 0.59713 0.71202
 H2133 H 0.68899 0.52881 0.73210
 H2134 H 0.64035 0.55228 0.78533
 H2135 H 0.68300 0.66334 0.77469
 H2136 H 0.73277 0.63943 0.72230
 C2137 C 0.18295 0.08470 0.25614
 C2138 C 0.19181 0.06709 0.24113
 C2139 C 0.18148 0.04444 0.24153
 C2140 C 0.16243 0.03947 0.25669
 C2141 C 0.15467 0.05681 0.27265
 C2142 C 0.16468 0.07966 0.27222
 C2143 C 0.19196 0.10918 0.25394
 C2144 C 0.18217 0.12706 0.26797
 C2145 C 0.19021 0.15043 0.26522
 C2146 C 0.20806 0.15598 0.24871
 C2147 C 0.21777 0.13774 0.23490
 C2148 C 0.20966 0.11435 0.23732
 C2149 C 0.15581 0.09792 0.28643
 C2150 C 0.16440 0.12122 0.28433
 C2151 C 0.20983 0.07285 0.22504
 C2152 C 0.21869 0.09606 0.22326
 H2153 H 0.14173 0.09428 0.29888
 H2154 H 0.15681 0.13484 0.29536
 H2155 H 0.21683 0.05939 0.21341
 H2156 H 0.23240 0.09980 0.21042
 H2157 H 0.18703 0.03115 0.22888
 H2158 H 0.13951 0.05314 0.28378
 H2159 H 0.18280 0.16423 0.27618
 H2160 H 0.23151 0.14175 0.22217
 C2161 C 0.33000 0.09181 0.76127
 C2162 C 0.31646 0.07133 0.76596
 C2163 C 0.32715 0.04908 0.76428
 C2164 C 0.35101 0.04748 0.75758
 C2165 C 0.36455 0.06827 0.75416
 C2166 C 0.35411 0.09044 0.75571
 C2167 C 0.31855 0.11505 0.76121
 C2168 C 0.33194 0.13533 0.75553
 C2169 C 0.32077 0.15722 0.75436
 C2170 C 0.29636 0.15900 0.75887
 C2171 C 0.28329 0.13852 0.76508
 C2172 C 0.29428 0.11646 0.76609
 C2173 C 0.36710 0.11117 0.75084
 C2174 C 0.35619 0.13325 0.75073
 C2175 C 0.29231 0.07353 0.77127
 C2176 C 0.28143 0.09571 0.77139
 H2177 H 0.38575 0.11027 0.74660
 H2178 H 0.36674 0.14878 0.74648
 H2179 H 0.28164 0.05795 0.77499
 H2180 H 0.26270 0.09657 0.77526
 H2181 H 0.31670 0.03310 0.76685
 H2182 H 0.38306 0.06710 0.74937
 H2183 H 0.33107 0.17284 0.74983
 H2184 H 0.26449 0.13964 0.76860
 C2185 C 0.82938 0.59302 0.25950
 C2186 C 0.85351 0.59127 0.25415
 C2187 C 0.86358 0.56893 0.25259
 C2188 C 0.84965 0.54836 0.25576
 C2189 C 0.82578 0.55032 0.26229
 C2190 C 0.81545 0.57275 0.26399
 C2191 C 0.81830 0.61645 0.25937
 C2192 C 0.79402 0.61825 0.26401
 C2193 C 0.78340 0.64049 0.26292
 C2194 C 0.79685 0.66075 0.25682
 C2195 C 0.82127 0.65859 0.25255
 C2196 C 0.83208 0.63652 0.25384
 C2197 C 0.79130 0.57533 0.26908
 C2198 C 0.78078 0.59769 0.26916
 C2199 C 0.86688 0.61181 0.24947
 C2200 C 0.85634 0.63407 0.24929
 H2201 H 0.78033 0.55991 0.27265
 H2202 H 0.76203 0.59885 0.27285
 H2203 H 0.88555 0.61062 0.24540
 H2204 H 0.86718 0.64944 0.24517
 H2205 H 0.88209 0.56746 0.24791
 H2206 H 0.81503 0.53450 0.26468
 H2207 H 0.76459 0.64193 0.26626
 H2208 H 0.83185 0.67406 0.24814
 C2209 C 0.90963 0.26438 0.17134
 C2210 C 0.91069 0.26085 0.14666
 C2211 C 0.93269 0.25736 0.13613
 C2212 C 0.95353 0.25713 0.15006
 C2213 C 0.95246 0.26186 0.17458
 C2214 C 0.93038 0.26523 0.18542
 C2215 C 0.88628 0.26595 0.18275
 C2216 C 0.88504 0.26832 0.20757
 C2217 C 0.86270 0.26820 0.21845
 C2218 C 0.84183 0.26529 0.20462
 C2219 C 0.84352 0.26377 0.17969
 C2220 C 0.86563 0.26397 0.16870
 C2221 C 0.92845 0.26837 0.21012
 C2222 C 0.90618 0.26989 0.22100
 C2223 C 0.88965 0.25982 0.13312
 C2224 C 0.86748 0.26137 0.14396
 H2225 H 0.94426 0.26913 0.22121
 H2226 H 0.90551 0.27181 0.24015
 H2227 H 0.89030 0.25722 0.11405
 H2228 H 0.85165 0.25997 0.13294
 H2229 H 0.93359 0.25388 0.11719
 H2230 H 0.96854 0.26154 0.18530
 H2231 H 0.86161 0.26935 0.23764
 H2232 H 0.82761 0.26182 0.16883
 C2233 C 0.41119 0.77091 0.67544
 C2234 C 0.41195 0.76950 0.65054
 C2235 C 0.43375 0.76638 0.63948
 C2236 C 0.45464 0.76439 0.65310
 C2237 C 0.45392 0.76707 0.67794
 C2238 C 0.43206 0.77007 0.68929
 C2239 C 0.38800 0.77177 0.68724
 C2240 C 0.38702 0.77184 0.71218
 C2241 C 0.36479 0.77081 0.72327
 C2242 C 0.34382 0.76918 0.70946
 C2243 C 0.34522 0.77006 0.68451
 C2244 C 0.36720 0.77123 0.67331
 C2245 C 0.43042 0.77104 0.71419
 C2246 C 0.40830 0.77192 0.72543
 C2247 C 0.39078 0.77001 0.63722
 C2248 C 0.36876 0.77087 0.64843
 H2249 H 0.44634 0.77050 0.72510
 H2250 H 0.40784 0.77207 0.74468
 H2251 H 0.39121 0.76906 0.61799
 H2252 H 0.35280 0.77061 0.63753
 H2253 H 0.43441 0.76433 0.62032
 H2254 H 0.47005 0.76532 0.68838
 H2255 H 0.36386 0.77009 0.74248
 H2256 H 0.32917 0.76912 0.67373
 C2257 C 0.41637 0.25752 0.81582
 C2258 C 0.42183 0.27387 0.83405
 C2259 C 0.44415 0.27320 0.84530
 C2260 C 0.46053 0.25592 0.83881
 C2261 C 0.45524 0.24042 0.81980
 C2262 C 0.43313 0.24110 0.80823
 C2263 C 0.39216 0.25651 0.80562
 C2264 C 0.38644 0.23953 0.78809
 C2265 C 0.36314 0.23795 0.77918
 C2266 C 0.34548 0.25290 0.78803
 C2267 C 0.35162 0.26995 0.80550
 C2268 C 0.37494 0.27187 0.81431
 C2269 C 0.42692 0.22476 0.79025
 C2270 C 0.40401 0.22406 0.78027
 C2271 C 0.40433 0.28950 0.84168
 C2272 C 0.38128 0.28850 0.83200
 H2273 H 0.43973 0.21205 0.78421
 H2274 H 0.39985 0.21092 0.76672
 H2275 H 0.40829 0.30219 0.85571
 H2276 H 0.36819 0.30055 0.83875
 H2277 H 0.44794 0.28460 0.86045
 H2278 H 0.46772 0.22678 0.81521
 H2279 H 0.35865 0.22472 0.76581
 H2280 H 0.33826 0.28170 0.81228
 C2281 C 0.91979 0.75311 0.31063
 C2282 C 0.93254 0.73207 0.31033
 C2283 C 0.95405 0.73105 0.32281
 C2284 C 0.96309 0.75087 0.33556
 C2285 C 0.95123 0.77255 0.33361
 C2286 C 0.92906 0.77350 0.32192
 C2287 C 0.89569 0.75332 0.30016
 C2288 C 0.88201 0.77371 0.30228
 C2289 C 0.85846 0.77320 0.29386
 C2290 C 0.84892 0.75266 0.28290
 C2291 C 0.86317 0.73269 0.28017
 C2292 C 0.88642 0.73276 0.28918
 C2293 C 0.91522 0.79394 0.32266
 C2294 C 0.89204 0.79398 0.31319
 C2295 C 0.92294 0.71204 0.29868
 C2296 C 0.90033 0.71244 0.28811
 H2297 H 0.92206 0.80980 0.33133
 H2298 H 0.88176 0.80990 0.31475
 H2299 H 0.93276 0.69575 0.29820
 H2300 H 0.89341 0.69650 0.27964
 H2301 H 0.96340 0.71447 0.32333
 H2302 H 0.95770 0.78789 0.34329
 H2303 H 0.84757 0.78869 0.29576
 H2304 H 0.85583 0.71682 0.27187
 C2305 C 0.08985 0.76388 0.33065
 C2306 C 0.08833 0.76062 0.35527
 C2307 C 0.06599 0.75898 0.36567
 C2308 C 0.04523 0.75983 0.35159
 C2309 C 0.04691 0.76447 0.32715
 C2310 C 0.06932 0.76632 0.31650
 C2311 C 0.11330 0.76344 0.31934
 C2312 C 0.11485 0.76589 0.29461
 C2313 C 0.13711 0.76440 0.28384
 C2314 C 0.15763 0.76002 0.29759
 C2315 C 0.15573 0.75790 0.32242
 C2316 C 0.13363 0.75967 0.33338
 C2317 C 0.07167 0.76931 0.29186
 C2318 C 0.09405 0.76918 0.28112
 C2319 C 0.10912 0.75779 0.36885
 C2320 C 0.13140 0.75727 0.35808
 H2321 H 0.05605 0.77128 0.28072
 H2322 H 0.09502 0.77118 0.26202
 H2323 H 0.10811 0.75532 0.38789
 H2324 H 0.14696 0.75454 0.36912
 H2325 H 0.06469 0.75562 0.38457
 H2326 H 0.03094 0.76497 0.31628
 H2327 H 0.13834 0.76604 0.26471
 H2328 H 0.17141 0.75482 0.33319
 C2329 C 0.58983 0.26032 0.83019
 C2330 C 0.58863 0.25509 0.85448
 C2331 C 0.56647 0.25343 0.86523
 C2332 C 0.54553 0.25646 0.85182
 C2333 C 0.54695 0.26285 0.82776
 C2334 C 0.56919 0.26460 0.81675
 C2335 C 0.61307 0.26029 0.81843
 C2336 C 0.61432 0.26476 0.79396
 C2337 C 0.63638 0.26366 0.78269
 C2338 C 0.65695 0.25772 0.79570
 C2339 C 0.65533 0.25373 0.82031
 C2340 C 0.63348 0.25500 0.83175
 C2341 C 0.57123 0.26955 0.79240
 C2342 C 0.59341 0.26967 0.78122
 C2343 C 0.60953 0.25066 0.86738
 C2344 C 0.63159 0.25060 0.85619
 H2345 H 0.55552 0.27294 0.78180
 H2346 H 0.59413 0.27323 0.76234
 H2347 H 0.60876 0.24670 0.88617
 H2348 H 0.64725 0.24666 0.86667
 H2349 H 0.56541 0.24886 0.88388
 H2350 H 0.53083 0.26513 0.81742
 H2351 H 0.63742 0.26679 0.76374
 H2352 H 0.67105 0.24947 0.83058
 C2353 C 0.58489 0.75614 0.68220
 C2354 C 0.56676 0.74153 0.69109
 C2355 C 0.54404 0.74257 0.68088
 C2356 C 0.53953 0.75798 0.66191
 C2357 C 0.55742 0.77356 0.65417
 C2358 C 0.58032 0.77248 0.66406
 C2359 C 0.60938 0.75326 0.69104
 C2360 C 0.62773 0.76692 0.68122
 C2361 C 0.65108 0.76359 0.68914
 C2362 C 0.65615 0.74688 0.70692
 C2363 C 0.63745 0.73341 0.71664
 C2364 C 0.61406 0.73641 0.70863
 C2365 C 0.59907 0.78628 0.65515
 C2366 C 0.62238 0.78354 0.66358
 C2367 C 0.57204 0.72517 0.70899
 C2368 C 0.59528 0.72275 0.71770
 H2369 H 0.59580 0.79892 0.64116
 H2370 H 0.63638 0.79429 0.65597
 H2371 H 0.55818 0.71384 0.71600
 H2372 H 0.59864 0.70974 0.73133
 H2373 H 0.53032 0.73023 0.68640
 H2374 H 0.55408 0.78487 0.63907
 H2375 H 0.66524 0.77430 0.68174
 H2376 H 0.64108 0.72055 0.73034
 C2377 C 0.08376 0.25315 0.18187
 C2378 C 0.06611 0.23770 0.19031
 C2379 C 0.04358 0.23770 0.17956
 C2380 C 0.03875 0.25294 0.16052
 C2381 C 0.05612 0.26929 0.15318
 C2382 C 0.07885 0.26925 0.16361
 C2383 C 0.10816 0.25145 0.19135
 C2384 C 0.12611 0.26595 0.18197
 C2385 C 0.14944 0.26368 0.19045
 C2386 C 0.15487 0.24719 0.20833
 C2387 C 0.13654 0.23292 0.21764
 C2388 C 0.11320 0.23485 0.20908
 C2389 C 0.09717 0.28392 0.15516
 C2390 C 0.12040 0.28229 0.16418
 C2391 C 0.07173 0.22162 0.20836
 C2392 C 0.09485 0.22031 0.21767
 H2393 H 0.09365 0.29640 0.14108
 H2394 H 0.13407 0.29368 0.15690
 H2395 H 0.05824 0.20965 0.21504
 H2396 H 0.09849 0.20747 0.23139
 H2397 H 0.03030 0.22477 0.18480
 H2398 H 0.05260 0.28049 0.13803
 H2399 H 0.16329 0.27498 0.18334
 H2400 H 0.14046 0.22019 0.23140
 C2401 C -0.07908 0.99487 0.83783
 C2402 C -0.06539 0.99537 0.81715
 C2403 C -0.07676 0.99719 0.79493
 C2404 C -0.10171 0.99844 0.79334
 C2405 C -0.11500 0.99746 0.81445
 C2406 C -0.10385 0.99590 0.83664
 C2407 C -0.06725 0.99341 0.86123
 C2408 C -0.08100 0.99342 0.88187
 C2409 C -0.06969 0.99272 0.90408
 C2410 C -0.04481 0.99184 0.90576
 C2411 C -0.03128 0.99132 0.88487
 C2412 C -0.04244 0.99231 0.86251
 C2413 C -0.11704 0.99551 0.85765
 C2414 C -0.10579 0.99437 0.87992
 C2415 C -0.04059 0.99411 0.81914
 C2416 C -0.02931 0.99255 0.84144
 H2417 H -0.13621 0.99628 0.85688
 H2418 H -0.11657 0.99431 0.89574
 H2419 H -0.02979 0.99441 0.80334
 H2420 H -0.01014 0.99172 0.84219
 H2421 H -0.06595 0.99749 0.77924
 H2422 H -0.13419 0.99811 0.81351
 H2423 H -0.08026 0.99291 0.92006
 H2424 H -0.01211 0.99076 0.88602
 C2425 C 0.41967 0.50145 0.34202
 C2426 C 0.39685 0.51074 0.33993
 C2427 C 0.38598 0.51162 0.31751
 C2428 C 0.39783 0.50370 0.29705
 C2429 C 0.42059 0.49393 0.29967
 C2430 C 0.43164 0.49298 0.32206
 C2431 C 0.43108 0.50023 0.36564
 C2432 C 0.45383 0.49074 0.36778
 C2433 C 0.46470 0.48984 0.39025
 C2434 C 0.45296 0.49837 0.41049
 C2435 C 0.43000 0.50756 0.40799
 C2436 C 0.41899 0.50854 0.38561
 C2437 C 0.45435 0.48347 0.32493
 C2438 C 0.46528 0.48243 0.34740
 C2439 C 0.38525 0.51878 0.36033
 C2440 C 0.39617 0.51775 0.38280
 H2441 H 0.46376 0.47682 0.30967
 H2442 H 0.48284 0.47503 0.34884
 H2443 H 0.36761 0.52596 0.35891
 H2444 H 0.38666 0.52419 0.39809
 H2445 H 0.36809 0.51819 0.31599
 H2446 H 0.42960 0.48641 0.28464
 H2447 H 0.48234 0.48268 0.39190
 H2448 H 0.42072 0.51414 0.42338
 C2449 C 0.57951 0.00056 0.34171
 C2450 C 0.56562 0.00127 0.32085
 C2451 C 0.57664 -0.00094 0.29868
 C2452 C 0.60139 -0.00390 0.29740
 C2453 C 0.61485 -0.00439 0.31871
 C2454 C 0.60408 -0.00237 0.34077
 C2455 C 0.56822 0.00339 0.36499
 C2456 C 0.58224 0.00272 0.38575
 C2457 C 0.57144 0.00494 0.40785
 C2458 C 0.54678 0.00786 0.40936
 C2459 C 0.53300 0.00905 0.38834
 C2460 C 0.54366 0.00669 0.36607
 C2461 C 0.61755 -0.00280 0.36188
 C2462 C 0.60679 -0.00038 0.38403
 C2463 C 0.54107 0.00464 0.32264
 C2464 C 0.53028 0.00729 0.34486
 H2465 H 0.63657 -0.00503 0.36127
 H2466 H 0.61776 -0.00090 0.39994
 H2467 H 0.53012 0.00530 0.30673
 H2468 H 0.51130 0.00981 0.34545
 H2469 H 0.56600 0.00054 0.28269
 H2470 H 0.63398 -0.00567 0.31807
 H2471 H 0.58223 0.00415 0.42388
 H2472 H 0.51398 0.01116 0.38932
 C2473 C 0.07987 0.50756 0.84100
 C2474 C 0.10418 0.50300 0.84003
 C2475 C 0.11521 0.50231 0.81793
 C2476 C 0.10216 0.50574 0.79672
 C2477 C 0.07781 0.51092 0.79817
 C2478 C 0.06660 0.51173 0.82026
 C2479 C 0.06799 0.50750 0.86416
 C2480 C 0.04357 0.51171 0.86513
 C2481 C 0.03222 0.51088 0.88712
 C2482 C 0.04510 0.50563 0.90798
 C2483 C 0.06967 0.50186 0.90669
 C2484 C 0.08120 0.50276 0.88483
 C2485 C 0.04225 0.51625 0.82198
 C2486 C 0.03093 0.51625 0.84405
 C2487 C 0.11692 0.49879 0.86112
 C2488 C 0.10561 0.49864 0.88317
 H2489 H 0.03181 0.51958 0.80611
 H2490 H 0.01209 0.51958 0.84459
 H2491 H 0.13574 0.49531 0.86055
 H2492 H 0.11599 0.49506 0.89902
 H2493 H 0.13398 0.49857 0.81710
 H2494 H 0.06725 0.51414 0.78248
 H2495 H 0.01330 0.51381 0.88788
 H2496 H 0.07982 0.49802 0.92264
 C2497 C 0.08292 0.49792 0.66032
 C2498 C 0.07056 0.48892 0.67987
 C2499 C 0.08100 0.49044 0.70250
 C2500 C 0.10360 0.50098 0.70577
 C2501 C 0.11594 0.50958 0.68591
 C2502 C 0.10559 0.50820 0.66312
 C2503 C 0.07180 0.49666 0.63650
 C2504 C 0.08399 0.50588 0.61694
 C2505 C 0.07309 0.50509 0.59440
 C2506 C 0.05012 0.49523 0.59140
 C2507 C 0.03836 0.48578 0.61125
 C2508 C 0.04908 0.48649 0.63381
 C2509 C 0.11734 0.51705 0.64308
 C2510 C 0.10672 0.51592 0.62039
 C2511 C 0.04797 0.47864 0.67643
 C2512 C 0.03739 0.47746 0.65378
 H2513 H 0.13484 0.52502 0.64496
 H2514 H 0.11634 0.52308 0.60544
 H2515 H 0.03831 0.47158 0.69140
 H2516 H 0.01987 0.46953 0.65191
 H2517 H 0.07162 0.48312 0.71752
 H2518 H 0.13334 0.51765 0.68821
 H2519 H 0.08238 0.51241 0.57931
 H2520 H 0.02074 0.47808 0.60927
 C2521 C 0.58522 0.99136 0.16063
 C2522 C 0.60498 1.00612 0.16526
 C2523 C 0.61524 1.00644 0.18810
 C2524 C 0.60583 0.99215 0.20623
 C2525 C 0.58638 0.97699 0.20104
 C2526 C 0.57590 0.97666 0.17834
 C2527 C 0.57373 0.99170 0.13695
 C2528 C 0.55358 0.97742 0.13256
 C2529 C 0.54226 0.97836 0.11029
 C2530 C 0.55100 0.99337 0.09239
 C2531 C 0.57152 1.00726 0.09699
 C2532 C 0.58285 1.00661 0.11931
 C2533 C 0.55600 0.96227 0.17311
 C2534 C 0.54499 0.96267 0.15063
 C2535 C 0.61374 1.02064 0.14708
 C2536 C 0.60290 1.02084 0.12448
 H2537 H 0.54867 0.95081 0.18662
 H2538 H 0.52952 0.95149 0.14743
 H2539 H 0.62899 1.03209 0.15040
 H2540 H 0.61013 1.03241 0.11103
 H2541 H 0.62994 1.01844 0.19193
 H2542 H 0.57924 0.96561 0.21470
 H2543 H 0.52662 0.96743 0.10693
 H2544 H 0.57839 1.01892 0.08341
 C2545 C 0.41850 0.50150 0.16148
 C2546 C 0.42943 0.51354 0.18061
 C2547 C 0.41865 0.51312 0.20289
 C2548 C 0.39718 0.50058 0.20628
 C2549 C 0.38627 0.48886 0.18680
 C2550 C 0.39692 0.48921 0.16434
 C2551 C 0.42994 0.50174 0.13803
 C2552 C 0.41907 0.48970 0.11885
 C2553 C 0.43014 0.48987 0.09661
 C2554 C 0.45200 0.50187 0.09354
 C2555 C 0.46253 0.51391 0.11306
 C2556 C 0.45158 0.51393 0.13528
 C2557 C 0.38654 0.47742 0.14469
 C2558 C 0.39742 0.47767 0.12234
 C2559 C 0.45098 0.52571 0.17713
 C2560 C 0.46189 0.52588 0.15485
 H2561 H 0.36990 0.46787 0.14662
 H2562 H 0.38883 0.46831 0.10769
 H2563 H 0.45955 0.53510 0.19177
 H2564 H 0.47856 0.53540 0.15294
 H2565 H 0.42690 0.52282 0.21751
 H2566 H 0.36977 0.47919 0.18918
 H2567 H 0.42182 0.48051 0.08180
 H2568 H 0.47925 0.52333 0.11099
 C2569 C -0.08465 0.00588 0.65764
 C2570 C -0.07401 0.01877 0.67639
 C2571 C -0.08474 0.01871 0.69870
 C2572 C -0.10581 0.00566 0.70248
 C2573 C -0.11658 -0.00672 0.68335
 C2574 C -0.10599 -0.00674 0.66086
 C2575 C -0.07296 0.00525 0.63432
 C2576 C -0.08339 -0.00785 0.61560
 C2577 C -0.07198 -0.00867 0.59355
 C2578 C -0.05017 0.00336 0.59025
 C2579 C -0.04009 0.01650 0.60929
 C2580 C -0.05141 0.01753 0.63130
 C2581 C -0.11599 -0.01951 0.64164
 C2582 C -0.10491 -0.02002 0.61939
 C2583 C -0.05262 0.03111 0.67258
 C2584 C -0.04150 0.03049 0.65042
 H2585 H -0.13245 -0.02932 0.64385
 H2586 H -0.11317 -0.03018 0.60509
 H2587 H -0.04428 0.04115 0.68692
 H2588 H -0.02491 0.04010 0.64829
 H2589 H -0.07655 0.02866 0.71320
 H2590 H -0.13265 -0.01700 0.68614
 H2591 H -0.07995 -0.01885 0.57910
 H2592 H -0.02345 0.02598 0.60701
 C2593 C -0.15974 0.91899 0.99830
 C2594 C -0.17919 0.93116 0.98899
 C2595 C -0.20186 0.92082 0.99016
 C2596 C -0.20524 0.89858 1.00093
 C2597 C -0.18529 0.88653 1.00974
 C2598 C -0.16261 0.89669 1.00867
 C2599 C -0.13583 0.92959 0.99676
 C2600 C -0.11635 0.91730 1.00589
 C2601 C -0.09369 0.92758 1.00463
 C2602 C -0.09043 0.95001 0.99436
 C2603 C -0.11018 0.96193 0.98498
 C2604 C -0.13291 0.95180 0.98616
 C2605 C -0.14270 0.88486 1.01752
 C2606 C -0.11994 0.89503 1.01620
 C2607 C -0.17555 0.95330 0.97839
 C2608 C -0.15279 0.96348 0.97704
 H2609 H -0.14473 0.86761 1.02553
 H2610 H -0.10505 0.88537 1.02328
 H2611 H -0.19042 0.96285 0.97108
 H2612 H -0.15074 0.98062 0.96879
 H2613 H -0.21652 0.92989 0.98198
 H2614 H -0.18740 0.86897 1.01706
 H2615 H -0.07868 0.91820 1.01189
 H2616 H -0.10795 0.97917 0.97697
 C2617 C 0.34047 0.42205 0.50230
 C2618 C 0.32069 0.43410 0.49354
 C2619 C 0.29829 0.42313 0.49423
 C2620 C 0.29548 0.40035 0.50400
 C2621 C 0.31574 0.38845 0.51226
 C2622 C 0.33817 0.39925 0.51164
 C2623 C 0.36410 0.43335 0.50126
 C2624 C 0.38390 0.42117 0.50981
 C2625 C 0.40631 0.43203 0.50891
 C2626 C 0.40903 0.45493 0.49953
 C2627 C 0.38896 0.46679 0.49083
 C2628 C 0.36646 0.45607 0.49166
 C2629 C 0.35839 0.38757 0.51997
 C2630 C 0.38088 0.39838 0.51911
 C2631 C 0.32376 0.45679 0.48397
 C2632 C 0.34626 0.46762 0.48309
 H2633 H 0.35681 0.36993 0.52721
 H2634 H 0.39604 0.38880 0.52574
 H2635 H 0.30864 0.46627 0.47710
 H2636 H 0.34786 0.48515 0.47561
 H2637 H 0.28341 0.43220 0.48649
 H2638 H 0.31406 0.37057 0.51887
 H2639 H 0.42158 0.42267 0.51563
 H2640 H 0.39078 0.48439 0.48354
 C2641 C 0.33914 0.57631 0.00694
 C2642 C 0.31876 0.56223 0.01028
 C2643 C 0.29637 0.57274 0.00958
 C2644 C 0.29433 0.59722 0.00551
 C2645 C 0.31518 0.61098 0.00268
 C2646 C 0.33751 0.60068 0.00322
 C2647 C 0.36264 0.56532 0.00708
 C2648 C 0.38293 0.57941 0.00334
 C2649 C 0.40519 0.56884 0.00304
 C2650 C 0.40728 0.54435 0.00656
 C2651 C 0.38673 0.53051 0.01057
 C2652 C 0.36434 0.54091 0.01074
 C2653 C 0.35821 0.61427 -0.00018
 C2654 C 0.38056 0.60380 -0.00016
 C2655 C 0.32120 0.53786 0.01403
 C2656 C 0.34360 0.52739 0.01429
 H2657 H 0.35712 0.63313 -0.00306
 H2658 H 0.39610 0.61486 -0.00300
 H2659 H 0.30565 0.52677 0.01668
 H2660 H 0.34468 0.50853 0.01714
 H2661 H 0.28091 0.56164 0.01209
 H2662 H 0.31389 0.62982 -0.00032
 H2663 H 0.42086 0.57971 0.00012
 H2664 H 0.38809 0.51163 0.01324
 C2665 C -0.16008 0.07941 0.50363
 C2666 C -0.16069 0.10401 0.50148
 C2667 C -0.18255 0.11519 0.50109
 C2668 C -0.20415 0.10222 0.50305
 C2669 C -0.20300 0.07726 0.50468
 C2670 C -0.18104 0.06589 0.50525
 C2671 C -0.13701 0.06755 0.50367
 C2672 C -0.13629 0.04287 0.50564
 C2673 C -0.11427 0.03169 0.50552
 C2674 C -0.09316 0.04507 0.50312
 C2675 C -0.09429 0.06981 0.50117
 C2676 C -0.11613 0.08113 0.50149
 C2677 C -0.17961 0.04120 0.50716
 C2678 C -0.15762 0.02990 0.50744
 C2679 C -0.13943 0.11703 0.49950
 C2680 C -0.11750 0.10577 0.49951
 H2681 H -0.19563 0.03051 0.50843
 H2682 H -0.15732 0.01083 0.50893
 H2683 H -0.13975 0.13608 0.49784
 H2684 H -0.10149 0.11642 0.49785
 H2685 H -0.18285 0.13422 0.49895
 H2686 H -0.21885 0.06634 0.50490
 H2687 H -0.11360 0.01263 0.50692
 H2688 H -0.07817 0.08031 0.49950
 C2689 C 0.66161 0.08478 0.50071
 C2690 C 0.66385 0.10933 0.50364
 C2691 C 0.68661 0.11984 0.50489
 C2692 C 0.70728 0.10596 0.50351
 C2693 C 0.70426 0.08115 0.50094
 C2694 C 0.68167 0.07061 0.49934
 C2695 C 0.63777 0.07366 0.49892
 C2696 C 0.63566 0.04913 0.49557
 C2697 C 0.61305 0.03859 0.49401
 C2698 C 0.59252 0.05229 0.49615
 C2699 C 0.59497 0.07696 0.49944
 C2700 C 0.61760 0.08774 0.50070
 C2701 C 0.67882 0.04610 0.49603
 C2702 C 0.65622 0.03556 0.49412
 C2703 C 0.64322 0.12288 0.50521
 C2704 C 0.62052 0.11227 0.50385
 H2705 H 0.69421 0.03495 0.49485
 H2706 H 0.65484 0.01660 0.49157
 H2707 H 0.64461 0.14186 0.50754
 H2708 H 0.60513 0.12339 0.50523
 H2709 H 0.68783 0.13874 0.50747
 H2710 H 0.71935 0.06980 0.49892
 H2711 H 0.61150 0.01960 0.49170
 H2712 H 0.57935 0.08772 0.50107
 C2713 C 0.15747 0.57788 0.99784
 C2714 C 0.16061 0.60007 1.00881
 C2715 C 0.18352 0.61011 1.01055
 C2716 C 0.20318 0.59799 1.00160
 C2717 C 0.19957 0.57581 0.99050
 C2718 C 0.17681 0.56568 0.98859
 C2719 C 0.13350 0.56713 0.99611
 C2720 C 0.13047 0.54489 0.98524
 C2721 C 0.10779 0.53446 0.98414
 C2722 C 0.08813 0.54598 0.99395
 C2723 C 0.09148 0.56852 1.00443
 C2724 C 0.11416 0.57914 1.00560
 C2725 C 0.17301 0.54357 0.97762
 C2726 C 0.15024 0.53336 0.97598
 C2727 C 0.14078 0.61167 1.01790
 C2728 C 0.11797 0.60138 1.01635
 H2729 H 0.18779 0.53402 0.97035
 H2730 H 0.14812 0.51620 0.96751
 H2731 H 0.14292 0.62880 1.02641
 H2732 H 0.10321 0.61088 1.02373
 H2733 H 0.18604 0.62715 1.01914
 H2734 H 0.21442 0.56656 0.98296
 H2735 H 0.10558 0.51717 0.97595
 H2736 H 0.07659 0.57763 1.01205
 C2737 C 0.16014 0.42002 0.50081
 C2738 C 0.17926 0.43106 0.51279
 C2739 C 0.20157 0.42063 0.51221
 C2740 C 0.20498 0.39939 0.49957
 C2741 C 0.18554 0.38839 0.48786
 C2742 C 0.16305 0.39870 0.48837
 C2743 C 0.13664 0.43105 0.50129
 C2744 C 0.11746 0.42008 0.48931
 C2745 C 0.09518 0.43078 0.48968
 C2746 C 0.09208 0.45239 0.50182
 C2747 C 0.11158 0.46301 0.51383
 C2748 C 0.13385 0.45243 0.51364
 C2749 C 0.14341 0.38820 0.47665
 C2750 C 0.12101 0.39870 0.47711
 C2751 C 0.17573 0.45233 0.52513
 C2752 C 0.15340 0.46286 0.52552
 H2753 H 0.14538 0.37174 0.46699
 H2754 H 0.10636 0.39003 0.46780
 H2755 H 0.19037 0.46097 0.53449
 H2756 H 0.15145 0.47932 0.53516
 H2757 H 0.21617 0.42891 0.52194
 H2758 H 0.18794 0.37206 0.47812
 H2759 H 0.08037 0.42241 0.48034
 H2760 H 0.10949 0.47954 0.52335
 C2761 C 0.65975 0.92059 -0.00116
 C2762 C 0.66222 0.89928 -0.01376
 C2763 C 0.68459 0.88878 -0.01476
 C2764 C 0.70433 0.89951 -0.00333
 C2765 C 0.70140 0.92078 0.00939
 C2766 C 0.67921 0.93143 0.01045
 C2767 C 0.63635 0.93176 -0.00005
 C2768 C 0.63396 0.95308 0.01250
 C2769 C 0.61174 0.96375 0.01334
 C2770 C 0.59191 0.95324 0.00180
 C2771 C 0.59463 0.93171 -0.01057
 C2772 C 0.61683 0.92093 -0.01160
 C2773 C 0.67610 0.95268 0.02296
 C2774 C 0.65386 0.96335 0.02394
 C2775 C 0.64227 0.88896 -0.02508
 C2776 C 0.61996 0.89959 -0.02401
 H2777 H 0.69100 0.96118 0.03202
 H2778 H 0.65223 0.97977 0.03372
 H2779 H 0.64390 0.87253 -0.03485
 H2780 H 0.60504 0.89105 -0.03300
 H2781 H 0.68664 0.87244 -0.02459
 H2782 H 0.71625 0.92888 0.01888
 H2783 H 0.60994 0.98024 0.02301
 H2784 H 0.57957 0.92343 -0.01958
 C2785 C 0.00163 0.83618 0.91997
 C2786 C -0.00574 0.81631 0.93289
 C2787 C -0.00491 0.79388 0.92222
 C2788 C 0.00348 0.79123 0.89882
 C2789 C 0.01046 0.81156 0.88613
 C2790 C 0.00974 0.83397 0.89662
 C2791 C 0.00045 0.85981 0.93094
 C2792 C 0.00768 0.87967 0.91790
 C2793 C 0.00668 0.90208 0.92845
 C2794 C -0.00150 0.90473 0.95188
 C2795 C -0.00891 0.88459 0.96459
 C2796 C -0.00794 0.86208 0.95420
 C2797 C 0.01676 0.85424 0.88409
 C2798 C 0.01579 0.87673 0.89459
 C2799 C -0.01408 0.81930 0.95614
 C2800 C -0.01513 0.84180 0.96663
 H2801 H 0.02304 0.85272 0.86603
 H2802 H 0.02140 0.89192 0.88435
 H2803 H -0.01987 0.80412 0.96630
 H2804 H -0.02165 0.84334 0.98460
 H2805 H -0.01148 0.77889 0.93206
 H2806 H 0.01613 0.80992 0.86786
 H2807 H 0.01239 0.91739 0.91843
 H2808 H -0.01523 0.88635 0.98263
 C2809 C 0.49981 0.34221 0.42263
 C2810 C 0.49341 0.32208 0.43564
 C2811 C 0.49435 0.29977 0.42474
 C2812 C 0.50191 0.29749 0.40099
 C2813 C 0.50789 0.31808 0.38823
 C2814 C 0.50704 0.34038 0.39895
 C2815 C 0.49861 0.36570 0.43389
 C2816 C 0.50493 0.38581 0.42079
 C2817 C 0.50402 0.40808 0.43163
 C2818 C 0.49683 0.41037 0.45544
 C2819 C 0.49026 0.38999 0.46823
 C2820 C 0.49116 0.36761 0.45753
 C2821 C 0.51312 0.36090 0.38635
 C2822 C 0.51213 0.38325 0.39712
 C2823 C 0.48595 0.32469 0.45925
 C2824 C 0.48488 0.34707 0.47002
 H2825 H 0.51871 0.35967 0.36803
 H2826 H 0.51702 0.39864 0.38682
 H2827 H 0.48091 0.30931 0.46950
 H2828 H 0.47909 0.34831 0.48828
 H2829 H 0.48858 0.28455 0.43472
 H2830 H 0.51296 0.31671 0.36975
 H2831 H 0.50904 0.42357 0.42154
 H2832 H 0.48471 0.39148 0.48655
 C2833 C 0.00401 0.33981 0.57843
 C2834 C 0.00869 0.31960 0.56479
 C2835 C 0.00773 0.29733 0.57555
 C2836 C 0.00197 0.29518 0.59982
 C2837 C -0.00222 0.31585 0.61318
 C2838 C -0.00137 0.33810 0.60261
 C2839 C 0.00463 0.36320 0.56714
 C2840 C -0.00031 0.38334 0.58078
 C2841 C -0.00012 0.40550 0.56991
 C2842 C 0.00500 0.40764 0.54555
 C2843 C 0.01020 0.38724 0.53220
 C2844 C 0.00996 0.36496 0.54291
 C2845 C -0.00598 0.35866 0.61576
 C2846 C -0.00548 0.38092 0.60501
 C2847 C 0.01413 0.32209 0.54061
 C2848 C 0.01475 0.34439 0.52985
 H2849 H -0.01013 0.35751 0.63447
 H2850 H -0.00927 0.39635 0.61572
 H2851 H 0.01783 0.30665 0.52988
 H2852 H 0.01892 0.34552 0.51114
 H2853 H 0.01157 0.28206 0.56481
 H2854 H -0.00636 0.31449 0.63190
 H2855 H -0.00400 0.42103 0.58043
 H2856 H 0.01414 0.38863 0.51345
 C2857 C 0.50486 0.84053 0.07972
 C2858 C 0.50033 0.83900 0.10411
 C2859 C 0.49961 0.81682 0.11480
 C2860 C 0.50317 0.79603 0.10142
 C2861 C 0.50800 0.79798 0.07692
 C2862 C 0.50881 0.82021 0.06601
 C2863 C 0.50526 0.86386 0.06831
 C2864 C 0.50967 0.86546 0.04387
 C2865 C 0.50970 0.88771 0.03305
 C2866 C 0.50517 0.90819 0.04653
 C2867 C 0.50098 0.90620 0.07108
 C2868 C 0.50102 0.88411 0.08205
 C2869 C 0.51333 0.82252 0.04162
 C2870 C 0.51377 0.84477 0.03073
 C2871 C 0.49641 0.85966 0.11733
 C2872 C 0.49674 0.88187 0.10646
 H2873 H 0.51645 0.80699 0.03081
 H2874 H 0.51721 0.84577 0.01186
 H2875 H 0.49293 0.85865 0.13619
 H2876 H 0.49351 0.89739 0.11724
 H2877 H 0.49603 0.81560 0.13365
 H2878 H 0.51109 0.78259 0.06608
 H2879 H 0.51292 0.88901 0.01415
 H2880 H 0.49767 0.92182 0.08170
 C2881 C 0.49829 0.66002 0.08274
 C2882 C 0.50864 0.66306 0.10539
 C2883 C 0.50990 0.68579 0.11555
 C2884 C 0.50111 0.70537 0.10308
 C2885 C 0.49057 0.70184 0.08047
 C2886 C 0.48917 0.67927 0.07022
 C2887 C 0.49705 0.63624 0.07187
 C2888 C 0.48676 0.63330 0.04920
 C2889 C 0.48598 0.61078 0.03873
 C2890 C 0.49549 0.59119 0.05068
 C2891 C 0.50549 0.59445 0.07360
 C2892 C 0.50634 0.61697 0.08425
 C2893 C 0.47881 0.67558 0.04766
 C2894 C 0.47764 0.65299 0.03732
 C2895 C 0.51760 0.64331 0.11732
 C2896 C 0.51649 0.62067 0.10693
 H2897 H 0.47165 0.69031 0.03786
 H2898 H 0.46962 0.65093 0.01983
 H2899 H 0.52563 0.64537 0.13480
 H2900 H 0.52371 0.60595 0.11670
 H2901 H 0.51798 0.68824 0.13295
 H2902 H 0.48308 0.71659 0.07096
 H2903 H 0.47818 0.60862 0.02115
 H2904 H 0.51287 0.57959 0.08304
 C2905 C -0.00262 0.15930 0.57994
 C2906 C 0.00784 0.16228 0.60255
 C2907 C 0.00899 0.18494 0.61284
 C2908 C -0.00003 0.20452 0.60055
 C2909 C -0.01067 0.20107 0.57798
 C2910 C -0.01196 0.17856 0.56758
 C2911 C -0.00376 0.13559 0.56894
 C2912 C -0.01415 0.13270 0.54631
 C2913 C -0.01485 0.11024 0.53574
 C2914 C -0.00519 0.09065 0.54757
 C2915 C 0.00492 0.09386 0.57044
 C2916 C 0.00571 0.11632 0.58118
 C2917 C -0.02240 0.17493 0.54506
 C2918 C -0.02347 0.15239 0.53459
 C2919 C 0.01699 0.14253 0.61433
 C2920 C 0.01596 0.11995 0.60382
 H2921 H -0.02973 0.18967 0.53539
 H2922 H -0.03157 0.15037 0.51714
 H2923 H 0.02510 0.14455 0.63178
 H2924 H 0.02332 0.10522 0.61348
 H2925 H 0.01717 0.18733 0.63020
 H2926 H -0.01833 0.21583 0.56861
 H2927 H -0.02275 0.10809 0.51820
 H2928 H 0.01241 0.07900 0.57979
 C2929 C 0.50333 0.16194 0.41986
 C2930 C 0.51509 0.18112 0.43092
 C2931 C 0.51372 0.20354 0.42066
 C2932 C 0.50053 0.20698 0.39956
 C2933 C 0.48907 0.18748 0.38852
 C2934 C 0.49036 0.16490 0.39866
 C2935 C 0.50449 0.13835 0.43079
 C2936 C 0.49259 0.11917 0.41987
 C2937 C 0.49334 0.09688 0.43063
 C2938 C 0.50572 0.09374 0.45230
 C2939 C 0.51782 0.11320 0.46278
 C2940 C 0.51725 0.13551 0.45212
 C2941 C 0.47882 0.14523 0.38815
 C2942 C 0.47992 0.12276 0.39857
 C2943 C 0.52794 0.17752 0.45209
 C2944 C 0.52898 0.15511 0.46252
 H2945 H 0.46877 0.14723 0.37179
 H2946 H 0.47066 0.10811 0.38994
 H2947 H 0.53715 0.19219 0.46075
 H2948 H 0.53894 0.15314 0.47895
 H2949 H 0.52320 0.21823 0.42899
 H2950 H 0.47887 0.18992 0.37233
 H2951 H 0.48389 0.08212 0.42236
 H2952 H 0.52751 0.11108 0.47936
 C2953 C 0.00113 0.65567 0.91831
 C2954 C -0.01128 0.65884 0.89682
 C2955 C -0.01190 0.68143 0.88664
 C2956 C -0.00031 0.70074 0.89791
 C2957 C 0.01227 0.69708 0.91933
 C2958 C 0.01297 0.67464 0.92964
 C2959 C 0.00168 0.63204 0.92924
 C2960 C 0.01393 0.62898 0.95082
 C2961 C 0.01401 0.60662 0.96140
 C2962 C 0.00195 0.58732 0.95056
 C2963 C -0.00997 0.59069 0.92867
 C2964 C -0.01023 0.61304 0.91799
 C2965 C 0.02526 0.67083 0.95110
 C2966 C 0.02570 0.64839 0.96153
 C2967 C -0.02288 0.63935 0.88603
 C2968 C -0.02236 0.61685 0.89643
 H2969 H 0.03451 0.68535 0.95998
 H2970 H 0.03526 0.64625 0.97816
 H2971 H -0.03251 0.64152 0.86945
 H2972 H -0.03162 0.60234 0.88756
 H2973 H -0.02166 0.68403 0.87021
 H2974 H 0.02186 0.71159 0.92786
 H2975 H 0.02334 0.60433 0.97814
 H2976 H -0.01936 0.57606 0.92013
 C2977 C 0.23930 0.66738 0.90931
 C2978 C 0.23456 0.68068 0.92988
 C2979 C 0.23595 0.66978 0.95227
 C2980 C 0.24238 0.64595 0.95395
 C2981 C 0.24580 0.63265 0.93305
 C2982 C 0.24458 0.64330 0.91074
 C2983 C 0.23971 0.67905 0.88594
 C2984 C 0.24544 0.66589 0.86560
 C2985 C 0.24689 0.67726 0.84359
 C2986 C 0.24256 0.70162 0.84176
 C2987 C 0.23633 0.71445 0.86232
 C2988 C 0.23507 0.70327 0.88449
 C2989 C 0.24952 0.63056 0.88992
 C2990 C 0.24998 0.64168 0.86772
 C2991 C 0.22953 0.70480 0.92762
 C2992 C 0.22972 0.71588 0.90531
 H2993 H 0.25355 0.61194 0.89085
 H2994 H 0.25426 0.63131 0.85215
 H2995 H 0.22579 0.71530 0.94326
 H2996 H 0.22603 0.73458 0.90443
 H2997 H 0.23338 0.68006 0.96833
 H2998 H 0.25040 0.61416 0.93426
 H2999 H 0.25143 0.66714 0.82791
 H3000 H 0.23296 0.73320 0.86117
 C3001 C 0.73956 0.16825 0.40662
 C3002 C 0.74975 0.14600 0.40884
 C3003 C 0.75165 0.13585 0.43130
 C3004 C 0.74396 0.14778 0.45196
 C3005 C 0.73222 0.16950 0.44919
 C3006 C 0.73043 0.18003 0.42652
 C3007 C 0.73916 0.17970 0.38308
 C3008 C 0.72975 0.20236 0.38081
 C3009 C 0.73041 0.21356 0.35855
 C3010 C 0.74053 0.20223 0.33868
 C3011 C 0.74940 0.17926 0.34134
 C3012 C 0.74882 0.16799 0.36343
 C3013 C 0.72059 0.20250 0.42339
 C3014 C 0.72029 0.21346 0.40098
 C3015 C 0.75861 0.13453 0.38866
 C3016 C 0.75817 0.14535 0.36634
 H3017 H 0.71345 0.21188 0.43847
 H3018 H 0.71285 0.23093 0.39949
 H3019 H 0.76641 0.11723 0.39022
 H3020 H 0.76556 0.13607 0.35132
 H3021 H 0.75927 0.11845 0.43254
 H3022 H 0.72616 0.17911 0.46461
 H3023 H 0.72338 0.23118 0.35682
 H3024 H 0.75710 0.17023 0.32632
 C3025 C 0.24717 0.31983 0.41633
 C3026 C 0.26280 0.31184 0.43401
 C3027 C 0.26225 0.32218 0.45668
 C3028 C 0.24626 0.34033 0.46160
 C3029 C 0.22980 0.34723 0.44417
 C3030 C 0.23040 0.33724 0.42131
 C3031 C 0.24928 0.31072 0.39185
 C3032 C 0.23450 0.31961 0.37390
 C3033 C 0.23699 0.31136 0.35053
 C3034 C 0.25393 0.29413 0.34509
 C3035 C 0.26856 0.28537 0.36337
 C3036 C 0.26642 0.29375 0.38675
 C3037 C 0.21553 0.34525 0.40297
 C3038 C 0.21756 0.33661 0.37966
 C3039 C 0.27951 0.29460 0.42833
 C3040 C 0.28120 0.28561 0.40512
 H3041 H 0.20254 0.35868 0.40656
 H3042 H 0.20596 0.34349 0.36597
 H3043 H 0.29163 0.28828 0.44185
 H3044 H 0.29446 0.27248 0.40144
 H3045 H 0.27521 0.31725 0.47005
 H3046 H 0.21800 0.36171 0.44780
 H3047 H 0.22540 0.31801 0.33670
 H3048 H 0.28161 0.27210 0.35941
 C3049 C 0.74628 0.81849 0.91401
 C3050 C 0.72978 0.83629 0.91849
 C3051 C 0.72876 0.84633 0.94131
 C3052 C 0.74456 0.83909 0.95919
 C3053 C 0.76019 0.82049 0.95477
 C3054 C 0.76116 0.81011 0.93215
 C3055 C 0.74898 0.80940 0.88959
 C3056 C 0.76590 0.79206 0.88499
 C3057 C 0.76861 0.78370 0.86167
 C3058 C 0.75477 0.79284 0.84296
 C3059 C 0.73806 0.81044 0.84792
 C3060 C 0.73500 0.81868 0.87121
 C3061 C 0.77763 0.79250 0.92696
 C3062 C 0.77987 0.78353 0.90380
 C3063 C 0.71569 0.84468 0.89971
 C3064 C 0.71827 0.83603 0.87647
 H3065 H 0.78917 0.78588 0.94084
 H3066 H 0.79294 0.77011 0.90051
 H3067 H 0.70293 0.85841 0.90292
 H3068 H 0.70729 0.84322 0.86244
 H3069 H 0.71725 0.86113 0.94457
 H3070 H 0.77267 0.81531 0.96850
 H3071 H 0.78146 0.77013 0.85809
 H3072 H 0.72706 0.81738 0.83377
 C3073 C 0.72855 0.82590 0.08753
 C3074 C 0.72997 0.81202 0.06679
 C3075 C 0.73329 0.82321 0.04481
 C3076 C 0.73570 0.84792 0.04385
 C3077 C 0.73294 0.86158 0.06454
 C3078 C 0.72955 0.85068 0.08648
 C3079 C 0.72772 0.81433 0.11091
 C3080 C 0.72793 0.82831 0.13160
 C3081 C 0.72941 0.81737 0.15376
 C3082 C 0.73086 0.79264 0.15538
 C3083 C 0.72942 0.77873 0.13455
 C3084 C 0.72817 0.78956 0.11216
 C3085 C 0.72856 0.86403 0.10753
 C3086 C 0.72776 0.85303 0.12975
 C3087 C 0.72942 0.78728 0.06871
 C3088 C 0.72850 0.77624 0.09100
 H3089 H 0.72917 0.88316 0.10688
 H3090 H 0.72772 0.86396 0.14562
 H3091 H 0.73039 0.77636 0.05289
 H3092 H 0.72874 0.75713 0.09170
 H3093 H 0.73566 0.81276 0.02882
 H3094 H 0.73484 0.88065 0.06367
 H3095 H 0.73020 0.82816 0.16975
 H3096 H 0.73058 0.75968 0.13570
 C3097 C 0.23016 0.32539 0.58984
 C3098 C 0.23155 0.31180 0.56892
 C3099 C 0.23501 0.32329 0.54710
 C3100 C 0.23757 0.34801 0.54650
 C3101 C 0.23493 0.36137 0.56740
 C3102 C 0.23139 0.35017 0.58916
 C3103 C 0.22895 0.31348 0.61304
 C3104 C 0.22904 0.32717 0.63393
 C3105 C 0.22999 0.31590 0.65594
 C3106 C 0.23106 0.29111 0.65727
 C3107 C 0.22984 0.27752 0.63621
 C3108 C 0.22909 0.28869 0.61395
 C3109 C 0.23036 0.36324 0.61040
 C3110 C 0.22920 0.35192 0.63243
 C3111 C 0.23074 0.28703 0.57047
 C3112 C 0.22950 0.27567 0.59260
 H3113 H 0.23117 0.38236 0.61003
 H3114 H 0.22911 0.36262 0.64846
 H3115 H 0.23171 0.27632 0.55451
 H3116 H 0.22951 0.25655 0.59302
 H3117 H 0.23727 0.31306 0.53095
 H3118 H 0.23690 0.38045 0.56682
 H3119 H 0.23060 0.32648 0.67208
 H3120 H 0.23072 0.25844 0.63710
 C3121 C 0.74652 0.18761 0.57834
 C3122 C 0.72664 0.17505 0.56934
 C3123 C 0.72745 0.16499 0.54633
 C3124 C 0.74864 0.16615 0.53324
 C3125 C 0.76776 0.18012 0.54213
 C3126 C 0.76681 0.19086 0.56453
 C3127 C 0.74671 0.19632 0.60318
 C3128 C 0.76680 0.20851 0.61213
 C3129 C 0.76723 0.21617 0.63588
 C3130 C 0.74807 0.21113 0.65094
 C3131 C 0.72805 0.19876 0.64173
 C3132 C 0.72720 0.19152 0.61773
 C3133 C 0.78637 0.20355 0.57395
 C3134 C 0.78630 0.21239 0.59728
 C3135 C 0.70706 0.17142 0.58422
 C3136 C 0.70738 0.17938 0.60799
 H3137 H 0.80209 0.20625 0.56335
 H3138 H 0.80188 0.22180 0.60396
 H3139 H 0.69161 0.16173 0.57765
 H3140 H 0.69210 0.17572 0.61894
 H3141 H 0.71278 0.15403 0.54004
 H3142 H 0.78400 0.18147 0.53205
 H3143 H 0.78271 0.22560 0.64283
 H3144 H 0.71310 0.19507 0.65312
 C3145 C 0.24241 0.68161 0.08385
 C3146 C 0.22573 0.66360 0.07854
 C3147 C 0.22603 0.65259 0.05609
 C3148 C 0.24326 0.65912 0.03941
 C3149 C 0.25911 0.67793 0.04459
 C3150 C 0.25880 0.68924 0.06683
 C3151 C 0.24372 0.69164 0.10814
 C3152 C 0.26096 0.70903 0.11367
 C3153 C 0.26264 0.71797 0.13697
 C3154 C 0.24750 0.70933 0.15481
 C3155 C 0.23030 0.69186 0.14887
 C3156 C 0.22829 0.68301 0.12556
 C3157 C 0.27548 0.70702 0.07289
 C3158 C 0.27646 0.71683 0.09588
 C3159 C 0.21011 0.65595 0.09629
 C3160 C 0.21138 0.66548 0.11939
 H3161 H 0.28819 0.71307 0.05990
 H3162 H 0.28980 0.73027 0.09988
 H3163 H 0.19717 0.64208 0.09245
 H3164 H 0.19927 0.65877 0.13264
 H3165 H 0.21436 0.63760 0.05241
 H3166 H 0.27273 0.68255 0.03191
 H3167 H 0.27596 0.73136 0.14129
 H3168 H 0.21837 0.68523 0.16234
 C3169 C 0.18779 0.58196 0.74293
 C3170 C 0.16946 0.57631 0.72666
 C3171 C 0.15851 0.55391 0.72755
 C3172 C 0.16539 0.53760 0.74496
 C3173 C 0.18454 0.54307 0.76033
 C3174 C 0.19580 0.56529 0.75944
 C3175 C 0.19763 0.60627 0.74381
 C3176 C 0.21523 0.61217 0.76076
 C3177 C 0.22377 0.63554 0.76225
 C3178 C 0.21451 0.65309 0.74726
 C3179 C 0.19697 0.64677 0.73023
 C3180 C 0.18851 0.62338 0.72841
 C3181 C 0.21386 0.57170 0.77572
 C3182 C 0.22349 0.59471 0.77630
 C3183 C 0.16139 0.59372 0.71096
 C3184 C 0.17074 0.61685 0.71183
 H3185 H 0.22023 0.55897 0.78850
 H3186 H 0.23711 0.59902 0.78941
 H3187 H 0.14728 0.58960 0.69833
 H3188 H 0.16365 0.62985 0.69974
 H3189 H 0.14323 0.55000 0.71629
 H3190 H 0.18941 0.53068 0.77410
 H3191 H 0.23720 0.64016 0.77547
 H3192 H 0.18986 0.66005 0.71845
 C3193 C 0.67215 0.08872 0.24198
 C3194 C 0.68528 0.06864 0.23604
 C3195 C 0.67421 0.04612 0.23670
 C3196 C 0.65074 0.04379 0.24488
 C3197 C 0.63775 0.06437 0.24966
 C3198 C 0.64823 0.08673 0.24813
 C3199 C 0.68382 0.11221 0.24269
 C3200 C 0.67047 0.13213 0.24855
 C3201 C 0.68158 0.15433 0.24960
 C3202 C 0.70602 0.15674 0.24555
 C3203 C 0.71934 0.13663 0.23990
 C3204 C 0.70818 0.11426 0.23812
 C3205 C 0.63539 0.10708 0.25358
 C3206 C 0.64629 0.12944 0.25360
 C3207 C 0.70947 0.07150 0.23078
 C3208 C 0.72075 0.09386 0.23198
 H3209 H 0.61683 0.10566 0.25819
 H3210 H 0.63583 0.14469 0.25810
 H3211 H 0.71991 0.05626 0.22625
 H3212 H 0.73951 0.09517 0.22822
 H3213 H 0.68445 0.03049 0.23306
 H3214 H 0.61933 0.06299 0.25488
 H3215 H 0.67131 0.16974 0.25409
 H3216 H 0.73815 0.13849 0.23652
 C3217 C 0.81285 0.08347 0.74245
 C3218 C 0.81830 0.07462 0.76501
 C3219 C 0.83052 0.05348 0.76690
 C3220 C 0.83823 0.04121 0.74652
 C3221 C 0.83134 0.04966 0.72386
 C3222 C 0.81889 0.07101 0.72178
 C3223 C 0.80140 0.10665 0.74052
 C3224 C 0.79641 0.11606 0.71797
 C3225 C 0.78654 0.13876 0.71638
 C3226 C 0.78245 0.15191 0.73722
 C3227 C 0.78714 0.14197 0.75954
 C3228 C 0.79648 0.11937 0.76133
 C3229 C 0.81316 0.08072 0.69950
 C3230 C 0.80208 0.10280 0.69764
 C3231 C 0.81219 0.08746 0.78541
 C3232 C 0.80156 0.10954 0.78360
 H3233 H 0.81763 0.07137 0.68335
 H3234 H 0.79834 0.10973 0.68012
 H3235 H 0.81624 0.08067 0.80293
 H3236 H 0.79765 0.11917 0.79975
 H3237 H 0.83410 0.04676 0.78454
 H3238 H 0.83699 0.04081 0.70784
 H3239 H 0.78298 0.14651 0.69917
 H3240 H 0.78379 0.15209 0.77556
 C3241 C 0.32314 0.58987 0.23308
 C3242 C 0.34799 0.58916 0.23406
 C3243 C 0.35905 0.56745 0.23718
 C3244 C 0.34547 0.54661 0.23968
 C3245 C 0.32065 0.54728 0.23741
 C3246 C 0.30931 0.56904 0.23434
 C3247 C 0.31140 0.61296 0.23222
 C3248 C 0.28654 0.61389 0.23249
 C3249 C 0.27554 0.63601 0.23340
 C3250 C 0.28937 0.65695 0.23461
 C3251 C 0.31424 0.65560 0.23350
 C3252 C 0.32534 0.63372 0.23239
 C3253 C 0.28447 0.57063 0.23376
 C3254 C 0.27328 0.59265 0.23281
 C3255 C 0.36130 0.61028 0.23319
 C3256 C 0.35015 0.63221 0.23236
 H3257 H 0.27357 0.55475 0.23463
 H3258 H 0.25410 0.59307 0.23294
 H3259 H 0.38049 0.60989 0.23382
 H3260 H 0.36105 0.64813 0.23233
 H3261 H 0.37819 0.56684 0.23896
 H3262 H 0.31024 0.53120 0.23958
 H3263 H 0.25639 0.63691 0.23429
 H3264 H 0.32502 0.67162 0.23410
 C3265 C 0.31764 0.41637 0.24826
 C3266 C 0.33546 0.42155 0.23172
 C3267 C 0.34531 0.44445 0.23106
 C3268 C 0.33786 0.46175 0.24723
 C3269 C 0.31931 0.45660 0.26296
 C3270 C 0.30911 0.43390 0.26357
 C3271 C 0.30867 0.39188 0.25048
 C3272 C 0.29129 0.38660 0.26741
 C3273 C 0.28304 0.36322 0.26966
 C3274 C 0.29232 0.34512 0.25537
 C3275 C 0.30996 0.35076 0.23865
 C3276 C 0.31809 0.37412 0.23605
 C3277 C 0.29148 0.42802 0.28005
 C3278 C 0.28263 0.40480 0.28185
 C3279 C 0.34401 0.40338 0.21719
 C3280 C 0.33548 0.38006 0.21933
 H3281 H 0.28474 0.44140 0.29193
 H3282 H 0.26918 0.40098 0.29493
 H3283 H 0.35775 0.40711 0.20440
 H3284 H 0.34279 0.36653 0.20800
 H3285 H 0.36011 0.44823 0.21949
 H3286 H 0.31398 0.46986 0.27573
 H3287 H 0.26946 0.35912 0.28253
 H3288 H 0.31702 0.33708 0.22732
 C3289 C 0.81926 0.91411 0.74198
 C3290 C 0.80858 0.93264 0.75441
 C3291 C 0.81861 0.95541 0.75327
 C3292 C 0.83921 0.95954 0.74001
 C3293 C 0.84889 0.94117 0.72652
 C3294 C 0.83911 0.91827 0.72764
 C3295 C 0.81040 0.88969 0.74521
 C3296 C 0.82183 0.87104 0.73375
 C3297 C 0.81371 0.84781 0.73731
 C3298 C 0.79418 0.84312 0.75211
 C3299 C 0.78299 0.86213 0.76352
 C3300 C 0.79109 0.88542 0.76021
 C3301 C 0.84971 0.89919 0.71601
 C3302 C 0.84120 0.87597 0.71899
 C3303 C 0.78903 0.92773 0.76893
 C3304 C 0.78037 0.90454 0.77169
 H3305 H 0.86503 0.90215 0.70492
 H3306 H 0.85008 0.86173 0.70995
 H3307 H 0.78063 0.94188 0.77859
 H3308 H 0.76541 0.90150 0.78324
 H3309 H 0.81167 0.96948 0.76422
 H3310 H 0.86522 0.94427 0.71695
 H3311 H 0.82235 0.83345 0.72820
 H3312 H 0.76791 0.85884 0.77487
 C3313 C 0.68570 0.91613 0.24512
 C3314 C 0.67485 0.92631 0.22513
 C3315 C 0.66478 0.94884 0.22728
 C3316 C 0.66558 0.96086 0.24928
 C3317 C 0.67834 0.95117 0.26843
 C3318 C 0.68786 0.92859 0.26668
 C3319 C 0.69383 0.89151 0.24388
 C3320 C 0.70315 0.88093 0.26441
 C3321 C 0.70989 0.85726 0.26349
 C3322 C 0.70794 0.84439 0.24216
 C3323 C 0.69911 0.85525 0.22151
 C3324 C 0.69156 0.87882 0.22241
 C3325 C 0.69812 0.91769 0.28655
 C3326 C 0.70551 0.89419 0.28547
 C3327 C 0.67314 0.91317 0.20387
 C3328 C 0.68156 0.88993 0.20247
 H3329 H 0.69984 0.92717 0.30328
 H3330 H 0.71289 0.88626 0.30134
 H3331 H 0.66491 0.92079 0.18827
 H3332 H 0.67975 0.88040 0.18577
 H3333 H 0.65480 0.95610 0.21254
 H3334 H 0.67911 0.96044 0.28536
 H3335 H 0.71718 0.84893 0.27921
 H3336 H 0.69794 0.84531 0.20500
 C3337 C 0.16891 0.40767 0.73984
 C3338 C 0.18263 0.42781 0.73431
 C3339 C 0.17269 0.45034 0.73680
 C3340 C 0.14942 0.45257 0.74511
 C3341 C 0.13563 0.43211 0.74944
 C3342 C 0.14533 0.40966 0.74710
 C3343 C 0.17969 0.38411 0.73893
 C3344 C 0.16620 0.36414 0.74542
 C3345 C 0.17689 0.34195 0.74585
 C3346 C 0.20092 0.33962 0.73987
 C3347 C 0.21397 0.35979 0.73270
 C3348 C 0.20349 0.38210 0.73240
 C3349 C 0.13217 0.38923 0.75272
 C3350 C 0.14244 0.36685 0.75193
 C3351 C 0.20624 0.42500 0.72728
 C3352 C 0.21648 0.40254 0.72630
 H3353 H 0.11391 0.39060 0.75826
 H3354 H 0.13181 0.35158 0.75683
 H3355 H 0.21703 0.44032 0.72290
 H3356 H 0.23486 0.40121 0.72114
 H3357 H 0.18334 0.46603 0.73345
 H3358 H 0.11749 0.43371 0.75534
 H3359 H 0.16659 0.32660 0.75118
 H3360 H 0.23248 0.35828 0.72804
 C3361 C 0.08994 0.72941 0.82425
 C3362 C 0.08892 0.72956 0.84917
 C3363 C 0.06699 0.73201 0.86015
 C3364 C 0.04626 0.73472 0.84645
 C3365 C 0.04722 0.73326 0.82153
 C3366 C 0.06920 0.73082 0.81026
 C3367 C 0.11326 0.72930 0.81266
 C3368 C 0.11448 0.73033 0.78776
 C3369 C 0.13681 0.73183 0.77694
 C3370 C 0.15764 0.73291 0.79100
 C3371 C 0.15600 0.73115 0.81588
 C3372 C 0.13391 0.72938 0.82680
 C3373 C 0.07109 0.73104 0.78537
 C3374 C 0.09333 0.73075 0.77432
 C3375 C 0.10996 0.72861 0.86265
 C3376 C 0.13210 0.72854 0.85164
 H3377 H 0.05528 0.73204 0.77435
 H3378 H 0.09399 0.73146 0.75510
 H3379 H 0.10933 0.72862 0.88189
 H3380 H 0.14795 0.72842 0.86269
 H3381 H 0.06614 0.73321 0.87937
 H3382 H 0.03121 0.73563 0.81103
 H3383 H 0.13796 0.73321 0.75778
 H3384 H 0.17195 0.73162 0.82682
 C3385 C 0.58877 0.23665 0.32495
 C3386 C 0.56775 0.23721 0.31132
 C3387 C 0.54594 0.23981 0.32290
 C3388 C 0.54543 0.24229 0.34777
 C3389 C 0.56649 0.24054 0.36116
 C3390 C 0.58823 0.23790 0.34987
 C3391 C 0.61186 0.23609 0.31293
 C3392 C 0.63278 0.23679 0.32665
 C3393 C 0.65465 0.23787 0.31525
 C3394 C 0.65584 0.23838 0.29026
 C3395 C 0.63472 0.23681 0.27667
 C3396 C 0.61260 0.23592 0.28798
 C3397 C 0.60954 0.23767 0.36298
 C3398 C 0.63146 0.23712 0.35155
 C3399 C 0.56916 0.23631 0.28639
 C3400 C 0.59119 0.23563 0.27493
 H3401 H 0.60928 0.23852 0.38221
 H3402 H 0.64751 0.23749 0.36230
 H3403 H 0.55313 0.23665 0.27564
 H3404 H 0.59146 0.23541 0.25569
 H3405 H 0.52968 0.24137 0.31263
 H3406 H 0.56600 0.24242 0.38034
 H3407 H 0.67079 0.23871 0.32589
 H3408 H 0.63547 0.23717 0.25744
 C3409 C 0.58199 0.74585 0.18682
 C3410 C 0.56540 0.76260 0.19401
 C3411 C 0.54297 0.76265 0.18300
 C3412 C 0.53722 0.74622 0.16488
 C3413 C 0.55346 0.72862 0.15893
 C3414 C 0.57606 0.72856 0.16963
 C3415 C 0.60648 0.74744 0.19628
 C3416 C 0.62345 0.73166 0.18792
 C3417 C 0.64696 0.73399 0.19601
 C3418 C 0.65363 0.75187 0.21245
 C3419 C 0.63625 0.76729 0.22100
 C3420 C 0.61268 0.76530 0.21276
 C3421 C 0.59338 0.71258 0.16234
 C3422 C 0.61667 0.71411 0.17132
 C3423 C 0.57208 0.77986 0.21095
 C3424 C 0.59528 0.78112 0.22026
 H3425 H 0.58906 0.69916 0.14911
 H3426 H 0.62960 0.70173 0.16485
 H3427 H 0.55941 0.79285 0.21668
 H3428 H 0.59977 0.79493 0.23301
 H3429 H 0.53061 0.77652 0.18719
 H3430 H 0.54936 0.71649 0.14445
 H3431 H 0.66006 0.72179 0.18951
 H3432 H 0.64113 0.78108 0.23365
 C3433 C 0.08115 0.24344 0.68427
 C3434 C 0.06440 0.25974 0.69212
 C3435 C 0.04202 0.26012 0.68104
 C3436 C 0.03646 0.24443 0.66224
 C3437 C 0.05290 0.22729 0.65550
 C3438 C 0.07546 0.22692 0.66627
 C3439 C 0.10555 0.24470 0.69401
 C3440 C 0.12270 0.22937 0.68513
 C3441 C 0.14611 0.23134 0.69367
 C3442 C 0.15242 0.24838 0.71110
 C3443 C 0.13486 0.26341 0.72002
 C3444 C 0.11146 0.26178 0.71138
 C3445 C 0.09295 0.21140 0.65838
 C3446 C 0.11616 0.21261 0.66763
 C3447 C 0.07083 0.27626 0.70987
 C3448 C 0.09393 0.27718 0.71942
 H3449 H 0.08881 0.19858 0.64451
 H3450 H 0.12920 0.20059 0.66073
 H3451 H 0.05804 0.28889 0.71610
 H3452 H 0.09823 0.29040 0.73285
 H3453 H 0.02952 0.27366 0.68582
 H3454 H 0.04893 0.21577 0.64049
 H3455 H 0.15937 0.21950 0.68684
 H3456 H 0.13949 0.27661 0.73338
 C3457 C 0.90629 0.23496 0.66804
 C3458 C 0.90794 0.24092 0.64396
 C3459 C 0.93034 0.24372 0.63388
 C3460 C 0.95105 0.24110 0.64777
 C3461 C 0.94921 0.23396 0.67158
 C3462 C 0.92674 0.23108 0.68192
 C3463 C 0.88275 0.23386 0.67917
 C3464 C 0.88105 0.22877 0.70347
 C3465 C 0.85872 0.22906 0.71425
 C3466 C 0.83829 0.23487 0.70095
 C3467 C 0.84032 0.23935 0.67646
 C3468 C 0.86248 0.23888 0.66550
 C3469 C 0.92426 0.22539 0.70605
 C3470 C 0.90181 0.22422 0.71663
 C3471 C 0.88721 0.24497 0.63065
 C3472 C 0.86485 0.24399 0.64125
 H3473 H 0.93982 0.22228 0.71697
 H3474 H 0.90074 0.22019 0.73539
 H3475 H 0.88832 0.24949 0.61200
 H3476 H 0.84933 0.24772 0.63047
 H3477 H 0.93170 0.24882 0.61540
 H3478 H 0.96513 0.23198 0.68230
 H3479 H 0.85739 0.22564 0.73312
 H3480 H 0.82472 0.24360 0.66601
 C3481 C 0.40717 0.73718 0.16998
 C3482 C 0.42757 0.73309 0.18387
 C3483 C 0.45007 0.73563 0.17351
 C3484 C 0.45199 0.74261 0.14966
 C3485 C 0.43131 0.74540 0.13576
 C3486 C 0.40889 0.74298 0.14587
 C3487 C 0.38362 0.73645 0.18113
 C3488 C 0.36341 0.74165 0.16743
 C3489 C 0.34124 0.74238 0.17839
 C3490 C 0.33916 0.73799 0.20290
 C3491 C 0.35956 0.73206 0.21621
 C3492 C 0.38187 0.73148 0.20544
 C3493 C 0.38821 0.74725 0.13255
 C3494 C 0.36584 0.74662 0.14316
 C3495 C 0.42502 0.72755 0.20802
 C3496 C 0.40257 0.72671 0.21861
 H3497 H 0.38937 0.75165 0.11388
 H3498 H 0.35038 0.75051 0.13238
 H3499 H 0.44054 0.72428 0.21895
 H3500 H 0.40145 0.72277 0.23738
 H3501 H 0.46596 0.73352 0.18424
 H3502 H 0.43272 0.75037 0.11725
 H3503 H 0.32569 0.74673 0.16791
 H3504 H 0.35822 0.72864 0.23508
 C3505 C 0.41489 0.24889 0.32028
 C3506 C 0.43267 0.26418 0.31182
 C3507 C 0.45536 0.26356 0.32215
 C3508 C 0.46024 0.24782 0.34076
 C3509 C 0.44271 0.23167 0.34813
 C3510 C 0.41981 0.23235 0.33814
 C3511 C 0.39040 0.25112 0.31119
 C3512 C 0.37239 0.23669 0.32053
 C3513 C 0.34904 0.23929 0.31228
 C3514 C 0.34364 0.25599 0.29458
 C3515 C 0.36200 0.27029 0.28538
 C3516 C 0.38538 0.26804 0.29376
 C3517 C 0.40139 0.21783 0.34661
 C3518 C 0.37808 0.21998 0.33798
 C3519 C 0.42704 0.28067 0.29414
 C3520 C 0.40382 0.28247 0.28517
 H3521 H 0.40492 0.20503 0.36040
 H3522 H 0.36435 0.20864 0.34522
 H3523 H 0.44062 0.29253 0.28746
 H3524 H 0.40021 0.29555 0.27169
 H3525 H 0.46880 0.27633 0.31690
 H3526 H 0.44631 0.22008 0.36296
 H3527 H 0.33517 0.22795 0.31929
 H3528 H 0.35810 0.28314 0.27174
 C3529 C 0.91598 0.74431 0.81818
 C3530 C 0.92054 0.72771 0.83608
 C3531 C 0.94342 0.72649 0.84600
 C3532 C 0.96132 0.74218 0.83853
 C3533 C 0.95680 0.75795 0.81985
 C3534 C 0.93411 0.75911 0.80959
 C3535 C 0.89153 0.74717 0.80921
 C3536 C 0.88688 0.76416 0.79174
 C3537 C 0.86354 0.76698 0.78346
 C3538 C 0.84488 0.75320 0.79281
 C3539 C 0.84991 0.73644 0.81055
 C3540 C 0.87320 0.73326 0.81870
 C3541 C 0.92884 0.77568 0.79188
 C3542 C 0.90565 0.77807 0.78301
 C3543 C 0.90179 0.71371 0.84470
 C3544 C 0.87852 0.71644 0.83617
 H3545 H 0.94269 0.78717 0.78510
 H3546 H 0.90232 0.79119 0.76950
 H3547 H 0.90504 0.70087 0.85851
 H3548 H 0.86453 0.70550 0.84352
 H3549 H 0.94676 0.71489 0.86088
 H3550 H 0.97053 0.77038 0.81452
 H3551 H 0.85991 0.77987 0.76978
 H3552 H 0.83580 0.72547 0.81766
   
