data_POSCAR
  _audit_creation_date              2014-09-24
  _audit_creation_method            'ToBaCCo'
  _symmetry_space_group_name_H-M    'P1'
  _symmetry_Int_Tables_number       1
  _symmetry_cell_setting            triclinic
  loop_
  _symmetry_equiv_pos_as_xyz
 x,y,z
_cell_length_a 112.9545
_cell_length_b 112.9545
_cell_length_c 112.9545
_cell_angle_alpha 90.000000
_cell_angle_beta 90.000000
_cell_angle_gamma 90.000000
loop_
  _atom_site_label
  _atom_site_type_symbol
  _atom_site_fract_x
  _atom_site_fract_y
  _atom_site_fract_z
C1 C 0.32009 0.42134 0.91272
 C2 C 0.32007 0.41226 0.92187
 C3 C 0.32883 0.41227 0.93061
 C4 C 0.33798 0.42135 0.93056
 C5 C 0.33800 0.43006 0.92177
 C6 C 0.32887 0.43006 0.91267
 C7 C 0.31269 0.42383 0.90283
 N8 N 0.31644 0.43370 0.89660
 C9 C 0.32637 0.43741 0.90275
 C10 C 0.34792 0.43743 0.92423
 N11 N 0.35413 0.43373 0.93416
 C12 C 0.34790 0.42385 0.93792
 C13 C 0.32629 0.40241 0.93804
 N14 N 0.31635 0.39625 0.93435
 C15 C 0.31264 0.40241 0.92443
 H16 H 0.30503 0.41861 0.90046
 H17 H 0.33163 0.44503 0.90030
 H18 H 0.35029 0.44503 0.91892
 H19 H 0.35025 0.41860 0.94557
 H20 H 0.33153 0.40001 0.94569
 H21 H 0.30498 0.40001 0.91921
 C22 C 0.42145 0.83838 0.43042
 C23 C 0.41233 0.82927 0.43040
 C24 C 0.41236 0.82050 0.42166
 C25 C 0.42151 0.82048 0.41260
 C26 C 0.43027 0.82922 0.41261
 C27 C 0.43024 0.83835 0.42171
 C28 C 0.42393 0.84829 0.43780
 N29 N 0.43387 0.85448 0.43411
 C30 C 0.43762 0.84825 0.42422
 C31 C 0.43770 0.82668 0.40276
 N32 N 0.43398 0.81676 0.39658
 C33 C 0.42405 0.81306 0.40274
 C34 C 0.40246 0.81312 0.42413
 N35 N 0.39623 0.81687 0.43401
 C36 C 0.40240 0.82678 0.43774
 H37 H 0.41862 0.85066 0.44540
 H38 H 0.44528 0.85058 0.41897
 H39 H 0.44536 0.83190 0.40036
 H40 H 0.41881 0.80542 0.40033
 H41 H 0.40007 0.80547 0.41890
 H42 H 0.39995 0.83203 0.44537
 C43 C 0.92155 0.91237 0.82023
 C44 C 0.91244 0.92148 0.82025
 C45 C 0.91248 0.93026 0.82898
 C46 C 0.92163 0.93028 0.83805
 C47 C 0.93039 0.92153 0.83803
 C48 C 0.93034 0.91239 0.82894
 C49 C 0.92402 0.90246 0.81285
 N50 N 0.93395 0.89626 0.81653
 C51 C 0.93772 0.90249 0.82642
 C52 C 0.93782 0.92407 0.84789
 N53 N 0.93414 0.93401 0.85409
 C54 C 0.92419 0.93770 0.84792
 C55 C 0.90256 0.93764 0.82650
 N56 N 0.89633 0.93389 0.81662
 C57 C 0.90251 0.92397 0.81290
 H58 H 0.91870 0.90009 0.80525
 H59 H 0.94537 0.90014 0.83166
 H60 H 0.94546 0.91880 0.85022
 H61 H 0.91892 0.94534 0.85028
 H62 H 0.90018 0.94530 0.83172
 H63 H 0.90007 0.91871 0.80528
 C64 C 0.42199 -0.08725 0.31940
 C65 C 0.41287 -0.07815 0.31942
 C66 C 0.41283 -0.06945 0.32822
 C67 C 0.42190 -0.06949 0.33736
 C68 C 0.43066 -0.07824 0.33735
 C69 C 0.43070 -0.08730 0.32818
 C70 C 0.42452 -0.09710 0.31196
 N71 N 0.43443 -0.10332 0.31568
 C72 C 0.43811 -0.09717 0.32565
 C73 C 0.43801 -0.07579 0.34729
 N74 N 0.43425 -0.06592 0.35351
 C75 C 0.42437 -0.06216 0.34731
 C76 C 0.40295 -0.06205 0.32572
 N77 N 0.39680 -0.06571 0.31576
 C78 C 0.40301 -0.07560 0.31201
 H79 H 0.41928 -0.09941 0.30430
 H80 H 0.44572 -0.09955 0.33094
 H81 H 0.44565 -0.08103 0.34970
 H82 H 0.41912 -0.05454 0.34974
 H83 H 0.40052 -0.05444 0.33099
 H84 H 0.40063 -0.08079 0.30432
 C85 C 0.82007 0.32849 0.33763
 C86 C 0.82011 0.33764 0.32855
 C87 C 0.82890 0.33766 0.31983
 C88 C 0.83800 0.32855 0.31984
 C89 C 0.83796 0.31977 0.32856
 C90 C 0.82882 0.31974 0.33763
 C91 C 0.81264 0.32595 0.34748
 N92 N 0.81634 0.31601 0.35364
 C93 C 0.82627 0.31231 0.34748
 C94 C 0.84786 0.31238 0.32607
 N95 N 0.85409 0.31613 0.31620
 C96 C 0.84793 0.32606 0.31248
 C97 C 0.82642 0.34759 0.31247
 N98 N 0.81650 0.35376 0.31618
 C99 C 0.81273 0.34754 0.32605
 H100 H 0.80499 0.33118 0.34988
 H101 H 0.83149 0.30466 0.34988
 H102 H 0.85024 0.30472 0.33129
 H103 H 0.85037 0.33132 0.30487
 H104 H 0.83169 0.35002 0.30486
 H105 H 0.80507 0.34993 0.33126
 C106 C -0.17141 0.83861 0.82041
 C107 C -0.16229 0.82951 0.82043
 C108 C -0.16229 0.82077 0.82919
 C109 C -0.17141 0.82077 0.83829
 C110 C -0.18016 0.82952 0.83828
 C111 C -0.18016 0.83862 0.82915
 C112 C -0.17391 0.84849 0.81300
 N113 N -0.18383 0.85470 0.81669
 C114 C -0.18755 0.84851 0.82663
 C115 C -0.18755 0.82701 0.84818
 N116 N -0.18383 0.81710 0.85439
 C117 C -0.17390 0.81339 0.84819
 C118 C -0.15240 0.81338 0.82670
 N119 N -0.14621 0.81709 0.81679
 C120 C -0.15239 0.82699 0.81305
 H121 H -0.16863 0.85083 0.80537
 H122 H -0.19519 0.85087 0.83189
 H123 H -0.19519 0.83228 0.85053
 H124 H -0.16862 0.80577 0.85055
 H125 H -0.14999 0.80574 0.83195
 H126 H -0.14998 0.83222 0.80540
 C127 C 0.93087 0.33733 0.42189
 C128 C 0.93086 0.32825 0.41273
 C129 C 0.92213 0.31948 0.41273
 C130 C 0.91305 0.31942 0.42187
 C131 C 0.91306 0.32814 0.43066
 C132 C 0.92215 0.33727 0.43067
 C133 C 0.93825 0.34723 0.42442
 N134 N 0.93455 0.35339 0.43438
 C135 C 0.92465 0.34714 0.43809
 C136 C 0.90320 0.32557 0.43807
 N137 N 0.89703 0.31566 0.43432
 C138 C 0.90319 0.31200 0.42438
 C139 C 0.92461 0.31214 0.40280
 N140 N 0.93448 0.31590 0.39659
 C141 C 0.93822 0.32579 0.40280
 H142 H 0.94586 0.34963 0.41913
 H143 H 0.91939 0.34944 0.44575
 H144 H 0.90080 0.33077 0.44575
 H145 H 0.90078 0.30437 0.41912
 H146 H 0.91937 0.30449 0.40039
 H147 H 0.94584 0.33105 0.40038
 C148 C 0.43014 0.42135 0.83820
 C149 C 0.43016 0.41227 0.82906
 C150 C 0.42141 0.41227 0.82031
 C151 C 0.41227 0.42136 0.82034
 C152 C 0.41225 0.43008 0.82913
 C153 C 0.42136 0.43008 0.83823
 C154 C 0.43752 0.42384 0.84810
 N155 N 0.43378 0.43373 0.85434
 C156 C 0.42385 0.43744 0.84815
 C157 C 0.40233 0.43745 0.82665
 N158 N 0.39615 0.43373 0.81673
 C159 C 0.40236 0.42386 0.81297
 C160 C 0.42394 0.40241 0.81289
 N161 N 0.43388 0.39625 0.81659
 C162 C 0.43758 0.40241 0.82652
 H163 H 0.44517 0.41858 0.85043
 H164 H 0.41855 0.44504 0.85054
 H165 H 0.39990 0.44506 0.83191
 H166 H 0.39997 0.41864 0.80531
 H167 H 0.41872 0.40002 0.80524
 H168 H 0.44523 0.40001 0.83174
 C169 C 0.82012 0.91250 0.92177
 C170 C 0.82011 0.92161 0.91266
 C171 C 0.82883 0.93040 0.91268
 C172 C 0.83791 0.93044 0.92183
 C173 C 0.83792 0.92169 0.93058
 C174 C 0.82884 0.91254 0.93055
 C175 C 0.81275 0.90259 0.92424
 N176 N 0.81645 0.89639 0.93417
 C177 C 0.82634 0.90263 0.93793
 C178 C 0.84778 0.92424 0.93800
 N179 N 0.85396 0.93419 0.93431
 C180 C 0.84777 0.93787 0.92436
 C181 C 0.82631 0.93777 0.90277
 N182 N 0.81644 0.93401 0.89656
 C183 C 0.81274 0.92408 0.90274
 H184 H 0.80515 0.90021 0.91894
 H185 H 0.83159 0.90029 0.94558
 H186 H 0.85013 0.91898 0.94564
 H187 H 0.85011 0.94551 0.91909
 H188 H 0.83152 0.94544 0.90037
 H189 H 0.80513 0.91881 0.90031
 C190 C 0.31925 0.83789 0.32821
 C191 C 0.31929 0.82884 0.33738
 C192 C 0.32805 0.82010 0.33740
 C193 C 0.33712 0.82005 0.32826
 C194 C 0.33708 0.82875 0.31945
 C195 C 0.32797 0.83785 0.31943
 C196 C 0.31184 0.84776 0.32568
 N197 N 0.31552 0.85391 0.31571
 C198 C 0.32543 0.84769 0.31199
 C199 C 0.34695 0.82620 0.31205
 N200 N 0.35315 0.81632 0.31581
 C201 C 0.34701 0.81265 0.32577
 C202 C 0.32559 0.81277 0.34734
 N203 N 0.31570 0.81652 0.35354
 C204 C 0.31194 0.82639 0.34731
 H205 H 0.30423 0.85014 0.33096
 H206 H 0.33068 0.85001 0.30433
 H207 H 0.34933 0.83139 0.30437
 H208 H 0.34944 0.80504 0.33104
 H209 H 0.33084 0.80514 0.34977
 H210 H 0.30430 0.83163 0.34972
 C211 C 0.81976 0.41255 0.42184
 C212 C 0.81978 0.42161 0.41268
 C213 C 0.82853 0.43036 0.41267
 C214 C 0.83761 0.43041 0.42181
 C215 C 0.83759 0.42171 0.43060
 C216 C 0.82848 0.41259 0.43062
 C217 C 0.81237 0.40266 0.42438
 N218 N 0.81606 0.39653 0.43433
 C219 C 0.82596 0.40274 0.43805
 C220 C 0.84746 0.42425 0.43801
 N221 N 0.85367 0.43416 0.43426
 C222 C 0.84749 0.43782 0.42430
 C223 C 0.82606 0.43770 0.40273
 N224 N 0.81617 0.43395 0.39653
 C225 C 0.81243 0.42407 0.40275
 H226 H 0.80474 0.40022 0.41913
 H227 H 0.83117 0.40037 0.44572
 H228 H 0.84979 0.41902 0.44567
 H229 H 0.84986 0.44542 0.41900
 H230 H 0.83130 0.44534 0.40030
 H231 H 0.80479 0.41882 0.40034
 C232 C 0.92186 0.83804 -0.06975
 C233 C 0.91270 0.82898 -0.06981
 C234 C 0.91266 0.82028 -0.07861
 C235 C 0.92177 0.82029 -0.08772
 C236 C 0.93057 0.82899 -0.08766
 C237 C 0.93061 0.83805 -0.07850
 C238 C 0.92441 0.84787 -0.06230
 N239 N 0.93436 0.85405 -0.06596
 C240 C 0.93805 0.84789 -0.07592
 C241 C 0.93794 0.82650 -0.09757
 N242 N 0.93417 0.81664 -0.10383
 C243 C 0.92423 0.81294 -0.09765
 C244 C 0.90273 0.81293 -0.07616
 N245 N 0.89656 0.81663 -0.06623
 C246 C 0.90279 0.82649 -0.06244
 H247 H 0.91914 0.85020 -0.05466
 H248 H 0.94570 0.85024 -0.08118
 H249 H 0.94560 0.83174 -0.09990
 H250 H 0.91891 0.80536 -0.10004
 H251 H 0.90028 0.80534 -0.08144
 H252 H 0.90041 0.83169 -0.05477
 C253 C 0.31939 0.33727 0.82856
 C254 C 0.31934 0.32813 0.83764
 C255 C 0.32805 0.31933 0.83761
 C256 C 0.33716 0.31932 0.82851
 C257 C 0.33721 0.32810 0.81978
 C258 C 0.32815 0.33726 0.81981
 C259 C 0.31206 0.34722 0.82609
 N260 N 0.31582 0.35341 0.81620
 C261 C 0.32570 0.34719 0.81246
 C262 C 0.34710 0.32557 0.81240
 N263 N 0.35322 0.31561 0.81609
 C264 C 0.34701 0.31189 0.82599
 C265 C 0.32550 0.31192 0.84747
 N266 N 0.31561 0.31567 0.85366
 C267 C 0.31194 0.32562 0.84752
 H268 H 0.30442 0.34964 0.83132
 H269 H 0.33095 0.34960 0.80483
 H270 H 0.34954 0.33081 0.80477
 H271 H 0.34937 0.30421 0.83120
 H272 H 0.33070 0.30424 0.84985
 H273 H 0.30432 0.33089 0.84995
 C274 C 0.16239 0.57845 0.56969
 C275 C 0.17153 0.58753 0.56967
 C276 C 0.18030 0.58750 0.57840
 C277 C 0.18030 0.57839 0.58750
 C278 C 0.17152 0.56966 0.58752
 C279 C 0.16239 0.56969 0.57844
 C280 C 0.15247 0.57598 0.56233
 N281 N 0.14626 0.56608 0.56606
 C282 C 0.15246 0.56233 0.57595
 C283 C 0.17403 0.56226 0.59741
 N284 N 0.18397 0.56595 0.60357
 C285 C 0.18771 0.57585 0.59738
 C286 C 0.18771 0.59738 0.57588
 N287 N 0.18398 0.60358 0.56598
 C288 C 0.17404 0.59743 0.56228
 H289 H 0.15005 0.58122 0.55469
 H290 H 0.15005 0.55470 0.58119
 H291 H 0.16878 0.55463 0.59982
 H292 H 0.19537 0.58106 0.59977
 H293 H 0.19538 0.59976 0.58109
 H294 H 0.16880 0.59985 0.55465
 C295 C 0.58733 0.67196 0.06941
 C296 C 0.57822 0.66284 0.06943
 C297 C 0.56951 0.66282 0.07822
 C298 C 0.56955 0.67191 0.08735
 C299 C 0.57830 0.68067 0.08733
 C300 C 0.58737 0.68069 0.07818
 C301 C 0.59719 0.67449 0.06198
 N302 N 0.60339 0.68439 0.06570
 C303 C 0.59725 0.68809 0.07565
 C304 C 0.57584 0.68803 0.09726
 N305 N 0.56596 0.68429 0.10348
 C306 C 0.56221 0.67440 0.09729
 C307 C 0.56211 0.65293 0.07573
 N308 N 0.56578 0.64677 0.06579
 C309 C 0.57567 0.65296 0.06203
 H310 H 0.59957 0.66928 0.05431
 H311 H 0.59968 0.69572 0.08089
 H312 H 0.58109 0.69567 0.09966
 H313 H 0.55458 0.66916 0.09972
 H314 H 0.55449 0.65052 0.08100
 H315 H 0.58087 0.65057 0.05436
 C316 C 0.67158 0.17983 0.66261
 C317 C 0.66247 0.17982 0.67173
 C318 C 0.66252 0.17109 0.68051
 C319 C 0.67168 0.16203 0.68054
 C320 C 0.68043 0.16205 0.67179
 C321 C 0.68038 0.17112 0.66265
 C322 C 0.67405 0.18719 0.65269
 N323 N 0.68398 0.18349 0.64652
 C324 C 0.68775 0.17363 0.65274
 C325 C 0.68787 0.15220 0.67432
 N326 N 0.68419 0.14602 0.68427
 C327 C 0.67424 0.15218 0.68797
 C328 C 0.65262 0.17357 0.68790
 N329 N 0.64638 0.18343 0.68414
 C330 C 0.65254 0.18716 0.67422
 H331 H 0.66878 0.19480 0.65025
 H332 H 0.69542 0.16842 0.65036
 H333 H 0.69551 0.14987 0.66906
 H334 H 0.66898 0.14983 0.69561
 H335 H 0.65024 0.16835 0.69556
 H336 H 0.65008 0.19477 0.66896
 C337 C 1.08796 0.07795 0.17999
 C338 C 1.07881 0.08702 0.18002
 C339 C 1.07006 0.08700 0.17126
 C340 C 1.07010 0.07792 0.16213
 C341 C 1.07889 0.06921 0.16210
 C342 C 1.08801 0.06922 0.17122
 C343 C 1.09786 0.07549 0.18739
 N344 N 1.10412 0.06561 0.18367
 C345 C 1.09794 0.06188 0.17373
 C346 C 1.07640 0.06184 0.15217
 N347 N 1.06646 0.06554 0.14598
 C348 C 1.06272 0.07542 0.15223
 C349 C 1.06263 0.09686 0.17380
 N350 N 1.06632 0.10303 0.18373
 C351 C 1.07626 0.09688 0.18743
 H352 H 1.10017 0.08076 0.19503
 H353 H 1.10035 0.05427 0.16845
 H354 H 1.08170 0.05424 0.14979
 H355 H 1.05507 0.08068 0.14990
 H356 H 1.05497 0.09925 0.16857
 H357 H 1.08148 0.09928 0.19509
 C358 C 0.07845 0.16167 1.07020
 C359 C 0.08757 0.17077 1.07020
 C360 C 0.08754 0.17956 1.07892
 C361 C 0.07840 0.17960 1.08799
 C362 C 0.06964 0.17086 1.08800
 C363 C 0.06966 0.16171 1.07892
 C364 C 0.07596 0.15175 1.06284
 N365 N 0.06602 0.14556 1.06654
 C366 C 0.06228 0.15181 1.07642
 C367 C 0.06222 0.17343 1.09785
 N368 N 0.06593 0.18337 1.10403
 C369 C 0.07587 0.18704 1.09784
 C370 C 0.09745 0.18693 1.07642
 N371 N 0.10368 0.18316 1.06655
 C372 C 0.09750 0.17324 1.06284
 H373 H 0.08127 0.14936 1.05524
 H374 H 0.05462 0.14948 1.08167
 H375 H 0.05457 0.16818 1.10021
 H376 H 0.08115 0.19468 1.10017
 H377 H 0.09984 0.19459 1.08164
 H378 H 0.09993 0.16798 1.05523
 C379 C 0.16291 0.68108 0.67231
 C380 C 0.17201 0.68108 0.66320
 C381 C 0.18076 0.67233 0.66318
 C382 C 0.18076 0.66321 0.67228
 C383 C 0.17202 0.66320 0.68104
 C384 C 0.16291 0.67232 0.68105
 C385 C 0.15303 0.68847 0.67482
 N386 N 0.14685 0.68474 0.68473
 C387 C 0.15303 0.67482 0.68845
 C388 C 0.17453 0.65330 0.68841
 N389 N 0.18443 0.64712 0.68467
 C390 C 0.18815 0.65331 0.67476
 C391 C 0.18814 0.67484 0.65328
 N392 N 0.18440 0.68476 0.64712
 C393 C 0.17451 0.68848 0.65331
 H394 H 0.15063 0.69612 0.66959
 H395 H 0.15062 0.66959 0.69609
 H396 H 0.16930 0.65089 0.69606
 H397 H 0.19579 0.65091 0.66952
 H398 H 0.19578 0.66961 0.65086
 H399 H 0.16927 0.69613 0.65092
 C400 C 1.17193 0.16191 0.18013
 C401 C 1.16287 0.17106 0.18018
 C402 C 1.16287 0.17982 0.17144
 C403 C 1.17193 0.17978 0.16229
 C404 C 1.18064 0.17100 0.16224
 C405 C 1.18064 0.16187 0.17134
 C406 C 1.17441 0.15200 0.18750
 N407 N 1.18429 0.14575 0.18374
 C408 C 1.18799 0.15194 0.17381
 C409 C 1.18799 0.17349 0.15231
 N410 N 1.18428 0.18344 0.14614
 C411 C 1.17441 0.18718 0.15240
 C412 C 1.15302 0.18725 0.17399
 N413 N 1.14687 0.18354 0.18393
 C414 C 1.15302 0.17360 0.18762
 H415 H 1.16916 0.14967 0.19515
 H416 H 1.19559 0.14955 0.16850
 H417 H 1.19559 0.16819 0.14990
 H418 H 1.16915 0.19483 0.15009
 H419 H 1.15063 0.19491 0.16878
 H420 H 1.15062 0.16837 0.19527
 C421 C 0.66248 1.06965 0.57803
 C422 C 0.67159 1.06964 0.58715
 C423 C 0.68031 1.07842 0.58719
 C424 C 0.68029 1.08757 0.57811
 C425 C 0.67155 1.08758 0.56935
 C426 C 0.66246 1.07843 0.56931
 C427 C 0.65262 1.06223 0.57550
 N428 N 0.64640 1.06594 0.56559
 C429 C 0.65257 1.07590 0.56190
 C430 C 0.67406 1.09752 0.56201
 N431 N 0.68396 1.10374 0.56576
 C432 C 0.68767 1.09749 0.57566
 C433 C 0.68770 1.07590 0.59709
 N434 N 0.68400 1.06596 0.60324
 C435 C 0.67411 1.06223 0.59703
 H436 H 0.65030 1.05457 0.58075
 H437 H 0.65020 1.08118 0.55429
 H438 H 0.66879 1.09990 0.55437
 H439 H 0.69528 1.09984 0.58096
 H440 H 0.69532 1.08115 0.59952
 H441 H 0.66889 1.05456 0.59940
 C442 C 0.57826 0.56974 0.16271
 C443 C 0.58737 0.56975 0.17182
 C444 C 0.58740 0.57856 0.18053
 C445 C 0.57832 0.58770 0.18047
 C446 C 0.56957 0.58769 0.17172
 C447 C 0.56954 0.57853 0.16265
 C448 C 0.57573 0.56230 0.15286
 N449 N 0.56584 0.56603 0.14664
 C450 C 0.56215 0.57599 0.15277
 C451 C 0.56223 0.59763 0.17417
 N452 N 0.56597 0.60385 0.18404
 C453 C 0.57586 0.59765 0.18780
 C454 C 0.59728 0.57605 0.18793
 N455 N 0.60342 0.56609 0.18427
 C456 C 0.59723 0.56234 0.17438
 H457 H 0.58094 0.55463 0.15050
 H458 H 0.55453 0.58124 0.15032
 H459 H 0.55459 0.60004 0.16892
 H460 H 0.58110 0.60008 0.19544
 H461 H 0.59971 0.58131 0.19555
 H462 H 0.59960 0.55466 0.16918
 C463 C 0.66268 0.67209 0.18050
 C464 C 0.67183 0.66301 0.18052
 C465 C 0.68062 0.66306 0.17181
 C466 C 0.68062 0.67218 0.16271
 C467 C 0.67184 0.68090 0.16269
 C468 C 0.66269 0.68085 0.17176
 C469 C 0.65275 0.67454 0.18785
 N470 N 0.64654 0.68443 0.18411
 C471 C 0.65275 0.68820 0.17423
 C472 C 0.67436 0.68831 0.15281
 N473 N 0.68431 0.68463 0.14667
 C474 C 0.68804 0.67473 0.15285
 C475 C 0.68804 0.65319 0.17433
 N476 N 0.68430 0.64698 0.18421
 C477 C 0.67435 0.65312 0.18790
 H478 H 0.65033 0.66929 0.19547
 H479 H 0.65034 0.69584 0.16900
 H480 H 0.66910 0.69594 0.15039
 H481 H 0.69572 0.66953 0.15047
 H482 H 0.69571 0.65083 0.16912
 H483 H 0.66909 0.65067 0.19552
 C484 C 0.16177 0.07833 1.07044
 C485 C 0.17089 0.08743 1.07045
 C486 C 0.17964 0.08742 1.07921
 C487 C 0.17962 0.07830 1.08831
 C488 C 0.17087 0.06956 1.08831
 C489 C 0.16176 0.06957 1.07918
 C490 C 0.15188 0.07585 1.06303
 N491 N 0.14566 0.06593 1.06672
 C492 C 0.15185 0.06219 1.07665
 C493 C 0.17338 0.06216 1.09821
 N494 N 0.18330 0.06588 1.10442
 C495 C 0.18701 0.07580 1.09821
 C496 C 0.18704 0.09731 1.07672
 N497 N 0.18333 0.10351 1.06681
 C498 C 0.17342 0.09733 1.06307
 H499 H 0.14955 0.08113 1.05541
 H500 H 0.14947 0.05456 1.08191
 H501 H 0.16810 0.05453 1.10056
 H502 H 0.19464 0.08107 1.10056
 H503 H 0.19468 0.09970 1.08196
 H504 H 0.16819 0.09976 1.05543
 C505 C 0.58792 0.18016 0.57896
 C506 C 0.57882 0.18017 0.58807
 C507 C 0.57002 0.17146 0.58804
 C508 C 0.56996 0.16240 0.57890
 C509 C 0.57870 0.16239 0.57014
 C510 C 0.58786 0.17144 0.57017
 C511 C 0.59785 0.18749 0.57647
 N512 N 0.60400 0.18376 0.56654
 C513 C 0.59775 0.17391 0.56278
 C514 C 0.57613 0.15255 0.56271
 N515 N 0.56619 0.14641 0.56642
 C516 C 0.56251 0.15257 0.57636
 C517 C 0.56265 0.17396 0.59794
 N518 N 0.56643 0.18381 0.60417
 C519 C 0.57635 0.18752 0.59800
 H520 H 0.60032 0.19510 0.58173
 H521 H 0.60011 0.16869 0.55511
 H522 H 0.58134 0.15014 0.55505
 H523 H 0.55486 0.15019 0.58159
 H524 H 0.55498 0.16875 0.60033
 H525 H 0.58163 0.19512 0.60045
 C526 C 0.08705 0.57842 0.68056
 C527 C 0.07794 0.58753 0.68054
 C528 C 0.06923 0.58756 0.67174
 C529 C 0.06928 0.57847 0.66260
 C530 C 0.07803 0.56972 0.66262
 C531 C 0.08709 0.56969 0.67178
 C532 C 0.09690 0.57588 0.68799
 N533 N 0.10310 0.56598 0.68427
 C534 C 0.09697 0.56229 0.67432
 C535 C 0.07558 0.56235 0.65269
 N536 N 0.06571 0.56609 0.64646
 C537 C 0.06194 0.57598 0.65265
 C538 C 0.06183 0.59745 0.67424
 N539 N 0.06551 0.60360 0.68419
 C540 C 0.07540 0.59740 0.68794
 H541 H 0.09927 0.58109 0.69566
 H542 H 0.09940 0.55466 0.66907
 H543 H 0.08083 0.55472 0.65030
 H544 H 0.05431 0.58122 0.65021
 H545 H 0.05422 0.59988 0.66898
 H546 H 0.08060 0.59978 0.69562
 C547 C 0.66308 0.56944 0.07783
 C548 C 0.67220 0.56945 0.08693
 C549 C 0.68094 0.57821 0.08694
 C550 C 0.68092 0.58733 0.07784
 C551 C 0.67216 0.58733 0.06909
 C552 C 0.66306 0.57821 0.06909
 C553 C 0.65320 0.56204 0.07533
 N554 N 0.64700 0.56576 0.06543
 C555 C 0.65316 0.57569 0.06171
 C556 C 0.67465 0.59724 0.06171
 N557 N 0.68456 0.60343 0.06544
 C558 C 0.68829 0.59724 0.07534
 C559 C 0.68833 0.57570 0.09683
 N560 N 0.68462 0.56578 0.10300
 C561 C 0.67471 0.56205 0.09681
 H562 H 0.65081 0.55439 0.08056
 H563 H 0.65074 0.58092 0.05407
 H564 H 0.66941 0.59965 0.05407
 H565 H 0.69594 0.59965 0.08057
 H566 H 0.69597 0.58094 0.09924
 H567 H 0.66949 0.55440 0.09921
 C568 C 0.07797 0.68063 0.58742
 C569 C 0.08707 0.68063 0.57830
 C570 C 0.08710 0.67184 0.56958
 C571 C 0.07802 0.66269 0.56963
 C572 C 0.06928 0.66269 0.57840
 C573 C 0.06925 0.67184 0.58748
 C574 C 0.07546 0.68806 0.59729
 N575 N 0.06557 0.68433 0.60351
 C576 C 0.06187 0.67438 0.59738
 C577 C 0.06193 0.65275 0.57594
 N578 N 0.06567 0.64653 0.56605
 C579 C 0.07554 0.65275 0.56229
 C580 C 0.09698 0.67437 0.56218
 N581 N 0.10312 0.68432 0.56585
 C582 C 0.09693 0.68805 0.57575
 H583 H 0.08067 0.69573 0.59965
 H584 H 0.05425 0.66913 0.59983
 H585 H 0.05430 0.65033 0.58119
 H586 H 0.08078 0.65033 0.55465
 H587 H 0.09941 0.66911 0.55455
 H588 H 0.09930 0.69573 0.58096
 C589 C 0.57783 1.06959 0.66272
 C590 C 0.58694 1.06958 0.67184
 C591 C 0.58696 1.07836 0.68057
 C592 C 0.57788 1.08750 0.68054
 C593 C 0.56914 1.08752 0.67178
 C594 C 0.56911 1.07837 0.66269
 C595 C 0.57531 1.06218 0.65284
 N596 N 0.56541 1.06590 0.64661
 C597 C 0.56172 1.07586 0.65279
 C598 C 0.56179 1.09745 0.67427
 N599 N 0.56552 1.10367 0.68418
 C600 C 0.57542 1.09742 0.68791
 C601 C 0.59684 1.07584 0.68798
 N602 N 0.60300 1.06590 0.68429
 C603 C 0.59681 1.06217 0.67438
 H604 H 0.58057 1.05453 0.65052
 H605 H 0.55411 1.08115 0.65040
 H606 H 0.55417 1.09983 0.66899
 H607 H 0.58070 1.09977 0.69553
 H608 H 0.59926 1.08109 0.69561
 H609 H 0.59920 1.05450 0.66917
 C610 C 0.43066 0.33744 0.92233
 C611 C 0.43071 0.32828 0.91326
 C612 C 0.42201 0.31948 0.91331
 C613 C 0.41290 0.31947 0.92241
 C614 C 0.41284 0.32827 0.93112
 C615 C 0.42190 0.33743 0.93108
 C616 C 0.43799 0.34738 0.92478
 N617 N 0.43424 0.35362 0.93467
 C618 C 0.42435 0.34738 0.93842
 C619 C 0.40295 0.32573 0.93851
 N620 N 0.39683 0.31576 0.93483
 C621 C 0.40305 0.31203 0.92494
 C622 C 0.42455 0.31205 0.90345
 N623 N 0.43444 0.31579 0.89725
 C624 C 0.43811 0.32575 0.90338
 H625 H 0.44561 0.34975 0.91950
 H626 H 0.41906 0.34974 0.94604
 H627 H 0.40051 0.33098 0.94613
 H628 H 0.40069 0.30435 0.91974
 H629 H 0.41936 0.30437 0.90109
 H630 H 0.44573 0.33101 0.90094
 C631 C 0.93050 0.42131 0.33774
 C632 C 0.93046 0.41216 0.32866
 C633 C 0.92167 0.41214 0.31993
 C634 C 0.91257 0.42126 0.31994
 C635 C 0.91261 0.43004 0.32866
 C636 C 0.92176 0.43006 0.33774
 C637 C 0.93792 0.42385 0.34760
 N638 N 0.93423 0.43380 0.35378
 C639 C 0.92429 0.43749 0.34759
 C640 C 0.90272 0.43743 0.32617
 N641 N 0.89649 0.43368 0.31630
 C642 C 0.90265 0.42376 0.31258
 C643 C 0.92415 0.40222 0.31257
 N644 N 0.93407 0.39603 0.31627
 C645 C 0.93783 0.40225 0.32615
 H646 H 0.94556 0.41858 0.34996
 H647 H 0.91903 0.44513 0.34993
 H648 H 0.90034 0.44509 0.33139
 H649 H 0.90020 0.41850 0.30496
 H650 H 0.91888 0.39979 0.30495
 H651 H 0.94549 0.39985 0.33136
 C652 C 0.32005 0.92203 0.41225
 C653 C 0.32007 0.91290 0.42134
 C654 C 0.32885 0.91286 0.43006
 C655 C 0.33798 0.92196 0.43005
 C656 C 0.33796 0.93074 0.42132
 C657 C 0.32881 0.93078 0.41224
 C658 C 0.31261 0.92456 0.40240
 N659 N 0.31629 0.93449 0.39618
 C660 C 0.32625 0.93819 0.40236
 C661 C 0.34789 0.93811 0.42383
 N662 N 0.35413 0.93435 0.43372
 C663 C 0.34791 0.92443 0.43742
 C664 C 0.32635 0.90294 0.43743
 N665 N 0.31642 0.89678 0.43373
 C666 C 0.31267 0.90300 0.42385
 H667 H 0.30497 0.91929 0.40007
 H668 H 0.33151 0.94582 0.39999
 H669 H 0.35025 0.94575 0.41858
 H670 H 0.35027 0.91912 0.44502
 H671 H 0.33161 0.90050 0.44505
 H672 H 0.30501 0.90062 0.41863
 O673 O 0.24773 0.53207 0.73363
 O674 O 0.26924 0.52784 0.73719
 O675 O 0.23319 0.50239 0.71841
 O676 O 0.23638 0.48164 0.72172
 O677 O 0.21787 0.51678 0.74793
 O678 O 0.22216 0.51381 0.76985
 O679 O 0.26695 0.46854 0.75291
 O680 O 0.26279 0.47183 0.73157
 O681 O 0.28135 0.49729 0.76737
 O682 O 0.27697 0.52006 0.76379
 O683 O 0.25272 0.48295 0.78179
 O684 O 0.23167 0.48671 0.77915
 O685 O 0.25274 0.46855 0.76713
 O686 O 0.22985 0.47296 0.76365
 O687 O 0.26690 0.49719 0.78185
 O688 O 0.26296 0.51828 0.77920
 O689 O 0.28129 0.48299 0.75326
 O690 O 0.27771 0.48796 0.73119
 O691 O 0.23341 0.53210 0.74783
 O692 O 0.23628 0.52777 0.76988
 O693 O 0.21778 0.50238 0.73384
 O694 O 0.22224 0.48050 0.73742
 O695 O 0.24744 0.51665 0.71840
 O696 O 0.26921 0.51215 0.72269
 Zr697 Zr 0.25597 0.51469 0.73571
 O698 O 0.26761 0.50385 0.74666
 Zr699 Zr 0.23513 0.49399 0.73573
 O700 O 0.24611 0.48233 0.74658
 Zr701 Zr 0.23517 0.51480 0.75643
 O702 O 0.24603 0.50386 0.76808
 Zr703 Zr 0.26444 0.48554 0.74422
 O704 O 0.25352 0.49630 0.73238
 Zr705 Zr 0.26439 0.50619 0.76500
 O706 O 0.25357 0.51806 0.75413
 Zr707 Zr 0.24374 0.48551 0.76492
 O708 O 0.23181 0.49640 0.75415
 O709 O 0.23831 0.51161 0.73883
 O710 O 0.26149 0.48845 0.76199
 C711 C 0.23865 0.53712 0.73878
 C712 C 0.23837 0.51146 0.71337
 C713 C 0.21279 0.51153 0.73893
 C714 C 0.26192 0.46363 0.76209
 C715 C 0.28622 0.48805 0.76241
 C716 C 0.26192 0.48795 0.78671
 H717 H 0.27598 0.50562 0.74478
 H718 H 0.24419 0.50567 0.77645
 H719 H 0.23331 0.51663 0.73381
 H720 H 0.24439 0.47394 0.74476
 H721 H 0.26054 0.47573 0.72405
 H722 H 0.23957 0.47422 0.72510
 H723 H 0.25915 0.52545 0.77593
 H724 H 0.24248 0.53345 0.76741
 H725 H 0.28295 0.48093 0.73155
 H726 H 0.26890 0.51904 0.71726
 H727 H 0.22464 0.49088 0.77603
 H728 H 0.21656 0.50751 0.76746
 H729 H 0.26775 0.53206 0.74472
 H730 H 0.28369 0.51717 0.75897
 H731 H 0.21763 0.48233 0.74464
 H732 H 0.23279 0.46618 0.75894
 O733 O 0.28195 -0.00215 0.26666
 O734 O 0.27772 0.01937 0.26321
 O735 O 0.25239 -0.01667 0.28205
 O736 O 0.23161 -0.01331 0.27884
 O737 O 0.26648 -0.03205 0.25228
 O738 O 0.26347 -0.02779 0.23063
 O739 O 0.21846 0.01711 0.24731
 O740 O 0.22167 0.01302 0.26870
 O741 O 0.24725 0.03141 0.23288
 O742 O 0.26973 0.02730 0.23601
 O743 O 0.23281 0.00266 0.21857
 O744 O 0.23612 -0.01989 0.22270
 O745 O 0.21845 0.00283 0.23315
 O746 O 0.22249 -0.01983 0.23659
 O747 O 0.24701 0.01688 0.21848
 O748 O 0.26972 0.01324 0.22251
 O749 O 0.23295 0.03142 0.24699
 O750 O 0.23783 0.02790 0.26908
 O751 O 0.28198 -0.01639 0.25236
 O752 O 0.27763 -0.01340 0.23056
 O753 O 0.25225 -0.03205 0.26655
 O754 O 0.23036 -0.02756 0.26321
 O755 O 0.26664 -0.00242 0.28199
 O756 O 0.26200 0.01935 0.27772
 Zr757 Zr 0.26457 0.00611 0.26470
 O758 O 0.25376 0.01772 0.25367
 Zr759 Zr 0.24388 -0.01468 0.26476
 O760 O 0.23221 -0.00377 0.25386
 Zr761 Zr 0.26461 -0.01469 0.24393
 O762 O 0.25369 -0.00391 0.23220
 Zr763 Zr 0.23543 0.01458 0.25609
 O764 O 0.24618 0.00373 0.26803
 Zr765 Zr 0.25610 0.01445 0.23533
 O766 O 0.26785 0.00368 0.24630
 Zr767 Zr 0.23534 -0.00623 0.23551
 O768 O 0.24624 -0.01800 0.24637
 O769 O 0.26149 -0.01155 0.26157
 O770 O 0.23834 0.01154 0.23833
 C771 C 0.28701 -0.01120 0.26145
 C772 C 0.26150 -0.01150 0.28705
 C773 C 0.26131 -0.03708 0.26135
 C774 C 0.21355 0.01206 0.23813
 C775 C 0.23802 0.03632 0.23783
 C776 C 0.23779 0.01186 0.21363
 H777 H 0.25553 0.02609 0.25554
 H778 H 0.25552 -0.00580 0.22387
 H779 H 0.26654 -0.01658 0.26654
 H780 H 0.22383 -0.00546 0.25572
 H781 H 0.22554 0.01080 0.27624
 H782 H 0.22417 -0.01016 0.27546
 H783 H 0.26676 0.00836 0.21587
 H784 H 0.28180 -0.00581 0.23188
 H785 H 0.23081 0.03315 0.26868
 H786 H 0.26890 0.01905 0.28314
 H787 H 0.24142 -0.01724 0.21625
 H788 H 0.25568 -0.03167 0.23166
 H789 H 0.28170 0.01810 0.25551
 H790 H 0.26725 0.03354 0.24163
 H791 H 0.23198 -0.03199 0.25582
 H792 H 0.21601 -0.01702 0.24177
 O793 O 0.46796 0.75271 0.26671
 O794 O 0.47217 0.73117 0.26315
 O795 O 0.49762 0.76719 0.28198
 O796 O 0.51837 0.76388 0.27871
 O797 O 0.48343 0.78258 0.25224
 O798 O 0.48651 0.77828 0.23058
 O799 O 0.53146 0.73343 0.24739
 O800 O 0.52822 0.73760 0.26875
 O801 O 0.50272 0.71901 0.23302
 O802 O 0.47995 0.72340 0.23664
 O803 O 0.51693 0.74773 0.21851
 O804 O 0.51374 0.77023 0.22253
 O805 O 0.53142 0.74762 0.23314
 O806 O 0.52734 0.77030 0.23641
 O807 O 0.50276 0.73348 0.21851
 O808 O 0.48167 0.73731 0.22122
 O809 O 0.51701 0.71907 0.24713
 O810 O 0.51209 0.72268 0.26917
 O811 O 0.46798 0.76704 0.25251
 O812 O 0.47229 0.76419 0.23046
 O813 O 0.49769 0.78258 0.26649
 O814 O 0.51954 0.77811 0.26304
 O815 O 0.48333 0.75297 0.28194
 O816 O 0.48781 0.73119 0.27769
 Zr817 Zr 0.48532 0.74443 0.26465
 O818 O 0.49617 0.73278 0.25371
 Zr819 Zr 0.50606 0.76522 0.26468
 O820 O 0.51770 0.75428 0.25379
 Zr821 Zr 0.48527 0.76521 0.24391
 O822 O 0.49614 0.75432 0.23224
 Zr823 Zr 0.51449 0.73595 0.25613
 O824 O 0.50372 0.74683 0.26800
 Zr825 Zr 0.49382 0.73598 0.23538
 O826 O 0.48197 0.74682 0.24623
 Zr827 Zr 0.51451 0.75667 0.23545
 O828 O 0.50365 0.76849 0.24629
 O829 O 0.48843 0.76208 0.26153
 O830 O 0.51157 0.73890 0.23836
 C831 C 0.46293 0.76181 0.26156
 C832 C 0.48852 0.76204 0.28699
 C833 C 0.48862 0.78762 0.26131
 C834 C 0.53635 0.73844 0.23818
 C835 C 0.51195 0.71413 0.23799
 C836 C 0.51194 0.73852 0.21360
 H837 H 0.49440 0.72442 0.25560
 H838 H 0.49421 0.75606 0.22388
 H839 H 0.48342 0.76712 0.26652
 H840 H 0.52609 0.75599 0.25562
 H841 H 0.52433 0.73983 0.27629
 H842 H 0.52583 0.76079 0.27531
 H843 H 0.47456 0.74125 0.22446
 H844 H 0.46661 0.75798 0.23291
 H845 H 0.51914 0.71746 0.26882
 H846 H 0.48091 0.73152 0.28310
 H847 H 0.50815 0.76769 0.21629
 H848 H 0.49426 0.78222 0.23169
 H849 H 0.46791 0.73270 0.25565
 H850 H 0.48286 0.71667 0.24143
 H851 H 0.51790 0.78253 0.25566
 H852 H 0.53382 0.76754 0.24162
 O853 O 0.00206 0.71850 0.73359
 O854 O -0.01947 0.72273 0.73721
 O855 O 0.01658 0.74815 0.71839
 O856 O 0.01338 0.76891 0.72170
 O857 O 0.03191 0.73380 0.74795
 O858 O 0.02759 0.73670 0.76987
 O859 O -0.01720 0.78201 0.75299
 O860 O -0.01299 0.77877 0.73162
 O861 O -0.03154 0.75331 0.76740
 O862 O -0.02720 0.73053 0.76381
 O863 O -0.00285 0.76759 0.78182
 O864 O 0.01818 0.76384 0.77911
 O865 O -0.00298 0.78198 0.76721
 O866 O 0.01992 0.77764 0.76360
 O867 O -0.01707 0.75338 0.78187
 O868 O -0.01317 0.73228 0.77920
 O869 O -0.03150 0.76759 0.75327
 O870 O -0.02792 0.76264 0.73121
 O871 O 0.01639 0.71847 0.74778
 O872 O 0.01347 0.72275 0.76984
 O873 O 0.03200 0.74820 0.73387
 O874 O 0.02753 0.77008 0.73738
 O875 O 0.00232 0.73391 0.71840
 O876 O -0.01945 0.73843 0.72270
 Zr877 Zr -0.00620 0.73588 0.73570
 O878 O -0.01782 0.74673 0.74667
 Zr879 Zr 0.01465 0.75658 0.73572
 O880 O 0.00369 0.76824 0.74658
 Zr881 Zr 0.01460 0.73575 0.75642
 O882 O 0.00376 0.74670 0.76807
 Zr883 Zr -0.01465 0.76505 0.74424
 O884 O -0.00375 0.75427 0.73238
 Zr885 Zr -0.01460 0.74438 0.76501
 O886 O -0.00380 0.73250 0.75413
 Zr887 Zr 0.00606 0.76506 0.76492
 O888 O 0.01797 0.75415 0.75414
 O889 O 0.01146 0.73896 0.73883
 O890 O -0.01169 0.76212 0.76200
 C891 C 0.01115 0.71345 0.73872
 C892 C 0.01139 0.73908 0.71336
 C893 C 0.03700 0.73907 0.73897
 C894 C -0.01218 0.78691 0.76219
 C895 C -0.03642 0.76255 0.76244
 C896 C -0.01205 0.76260 0.78674
 H897 H -0.02619 0.74496 0.74480
 H898 H 0.00561 0.74489 0.77645
 H899 H 0.01647 0.73395 0.73380
 H900 H 0.00541 0.77663 0.74477
 H901 H -0.01077 0.77488 0.72408
 H902 H 0.01019 0.77633 0.72507
 H903 H -0.00936 0.72511 0.77593
 H904 H 0.00727 0.71708 0.76733
 H905 H -0.03315 0.76967 0.73156
 H906 H -0.01914 0.73153 0.71728
 H907 H 0.02524 0.75975 0.77594
 H908 H 0.03319 0.74302 0.76751
 H909 H -0.01794 0.71848 0.74472
 H910 H -0.03392 0.73343 0.75899
 H911 H 0.03212 0.76827 0.74463
 H912 H 0.01692 0.78446 0.75900
 O913 O -0.03191 -0.00230 -0.01656
 O914 O -0.02771 0.01923 -0.01308
 O915 O -0.00227 -0.01679 -0.03185
 O916 O 0.01848 -0.01344 -0.02859
 O917 O -0.01647 -0.03216 -0.00213
 O918 O -0.01348 -0.02790 0.01953
 O919 O 0.03154 0.01703 0.00292
 O920 O 0.02836 0.01291 -0.01847
 O921 O 0.00279 0.03130 0.01733
 O922 O -0.01972 0.02721 0.01410
 O923 O 0.01713 0.00254 0.03166
 O924 O 0.01390 -0.01999 0.02752
 O925 O 0.03152 0.00278 0.01711
 O926 O 0.02752 -0.01992 0.01361
 O927 O 0.00294 0.01675 0.03173
 O928 O -0.01976 0.01318 0.02763
 O929 O 0.01708 0.03131 0.00322
 O930 O 0.01220 0.02780 -0.01887
 O931 O -0.03196 -0.01653 -0.00225
 O932 O -0.02766 -0.01350 0.01957
 O933 O -0.00220 -0.03215 -0.01637
 O934 O 0.01969 -0.02767 -0.01293
 O935 O -0.01654 -0.00256 -0.03183
 O936 O -0.01196 0.01923 -0.02755
 Zr937 Zr -0.01453 0.00599 -0.01454
 O938 O -0.00375 0.01761 -0.00349
 Zr939 Zr 0.00618 -0.01480 -0.01455
 O940 O 0.01783 -0.00387 -0.00364
 Zr941 Zr -0.01461 -0.01480 0.00623
 O942 O -0.00371 -0.00401 0.01797
 Zr943 Zr 0.01459 0.01448 -0.00588
 O944 O 0.00387 0.00361 -0.01783
 Zr945 Zr -0.00611 0.01435 0.01484
 O946 O -0.01784 0.00357 0.00385
 Zr947 Zr 0.01465 -0.00633 0.01470
 O948 O 0.00377 -0.01811 0.00384
 O949 O -0.01145 -0.01167 -0.01140
 O950 O 0.01166 0.01144 0.01187
 C951 C -0.03697 -0.01136 -0.01136
 C952 C -0.01137 -0.01164 -0.03687
 C953 C -0.01128 -0.03719 -0.01120
 C954 C 0.03643 0.01201 0.01213
 C955 C 0.01202 0.03621 0.01239
 C956 C 0.01214 0.01173 0.03660
 H957 H -0.00551 0.02598 -0.00537
 H958 H -0.00555 -0.00590 0.02631
 H959 H -0.01648 -0.01669 -0.01638
 H960 H 0.02621 -0.00556 -0.00547
 H961 H 0.02450 0.01068 -0.02602
 H962 H 0.02591 -0.01028 -0.02520
 H963 H -0.01685 0.00824 0.03425
 H964 H -0.03184 -0.00592 0.01822
 H965 H 0.01922 0.03304 -0.01847
 H966 H -0.01884 0.01891 -0.03299
 H967 H 0.00849 -0.01740 0.03390
 H968 H -0.00569 -0.03178 0.01851
 H969 H -0.03170 0.01794 -0.00539
 H970 H -0.01717 0.03351 0.00857
 H971 H 0.01801 -0.03214 -0.00558
 H972 H 0.03406 -0.01704 0.00855
 O973 O -0.01689 0.46781 0.49772
 O974 O -0.01349 0.47203 0.51922
 O975 O -0.03211 0.49749 0.48313
 O976 O -0.02880 0.51823 0.48629
 O977 O -0.00254 0.48304 0.46792
 O978 O 0.01937 0.48596 0.47224
 O979 O 0.00239 0.53131 0.51702
 O980 O -0.01894 0.52806 0.51284
 O981 O 0.01686 0.50255 0.53136
 O982 O 0.01366 0.48002 0.52725
 O983 O 0.03127 0.51694 0.50267
 O984 O 0.02856 0.51329 0.48163
 O985 O 0.01662 0.53132 0.50282
 O986 O 0.01303 0.52696 0.47991
 O987 O 0.03134 0.50267 0.51681
 O988 O 0.02730 0.48004 0.51332
 O989 O 0.00272 0.51682 0.53132
 O990 O -0.01936 0.51190 0.52771
 O991 O -0.00253 0.46771 0.48355
 O992 O 0.01928 0.47204 0.48666
 O993 O -0.01663 0.49744 0.46778
 O994 O -0.01306 0.51937 0.47223
 O995 O -0.03216 0.48325 0.49741
 O996 O -0.02793 0.48780 0.51918
 Zr997 Zr -0.01489 0.48521 0.50597
 O998 O -0.00390 0.49600 0.51762
 Zr999 Zr -0.01478 0.50588 0.48511
 O1000 O -0.00397 0.51754 0.49613
 Zr1001 Zr 0.00593 0.48507 0.48523
 O1002 O 0.01759 0.49604 0.49604
 Zr1003 Zr -0.00631 0.51432 0.51446
 O1004 O -0.01817 0.50360 0.50351
 Zr1005 Zr 0.01445 0.49365 0.51440
 O1006 O 0.00350 0.48189 0.50360
 Zr1007 Zr 0.01438 0.51439 0.49377
 O1008 O 0.00364 0.50347 0.48184
 O1009 O -0.01169 0.48825 0.48832
 O1010 O 0.01146 0.51141 0.51151
 C1011 C -0.01165 0.46272 0.48870
 C1012 C -0.03717 0.48843 0.48832
 C1013 C -0.01153 0.48828 0.46281
 C1014 C 0.01158 0.53624 0.51201
 C1015 C 0.01188 0.51177 0.53625
 C1016 C 0.03621 0.51190 0.51183
 H1017 H -0.00579 0.49423 0.52598
 H1018 H 0.02595 0.49433 0.49408
 H1019 H -0.01669 0.48321 0.48332
 H1020 H -0.00579 0.52593 0.49441
 H1021 H -0.02645 0.52418 0.51054
 H1022 H -0.02545 0.52562 0.48958
 H1023 H 0.03376 0.48285 0.50811
 H1024 H 0.01787 0.46787 0.49424
 H1025 H -0.01898 0.51890 0.53297
 H1026 H -0.03337 0.48092 0.51887
 H1027 H 0.02545 0.50903 0.47464
 H1028 H 0.01704 0.49229 0.46664
 H1029 H -0.00577 0.46806 0.51799
 H1030 H 0.00815 0.48258 0.53355
 H1031 H -0.00587 0.51748 0.46758
 H1032 H 0.00844 0.53379 0.48292
 O1033 O 0.50221 0.03208 0.51692
 O1034 O 0.48067 0.02789 0.51330
 O1035 O 0.51664 0.00247 0.53225
 O1036 O 0.51335 -0.01829 0.52898
 O1037 O 0.53211 0.01663 0.50250
 O1038 O 0.52784 0.01351 0.48084
 O1039 O 0.48291 -0.03140 0.49754
 O1040 O 0.48704 -0.02817 0.51893
 O1041 O 0.46858 -0.00270 0.48310
 O1042 O 0.47293 0.02007 0.48678
 O1043 O 0.49736 -0.01688 0.46871
 O1044 O 0.51984 -0.01374 0.47283
 O1045 O 0.49712 -0.03136 0.48332
 O1046 O 0.51982 -0.02734 0.48675
 O1047 O 0.48310 -0.00272 0.46866
 O1048 O 0.48692 0.01838 0.47140
 O1049 O 0.46858 -0.01698 0.49722
 O1050 O 0.47213 -0.01202 0.51930
 O1051 O 0.51657 0.03205 0.50275
 O1052 O 0.51374 0.02773 0.48069
 O1053 O 0.53209 0.00240 0.51677
 O1054 O 0.52761 -0.01949 0.51335
 O1055 O 0.50242 0.01675 0.53216
 O1056 O 0.48066 0.01223 0.52785
 Zr1057 Zr 0.49392 0.01473 0.51485
 O1058 O 0.48228 0.00389 0.50387
 Zr1059 Zr 0.51472 -0.00599 0.51494
 O1060 O 0.50378 -0.01765 0.50404
 Zr1061 Zr 0.51475 0.01477 0.49415
 O1062 O 0.50388 0.00389 0.48246
 Zr1063 Zr 0.48543 -0.01444 0.50630
 O1064 O 0.49631 -0.00366 0.51820
 Zr1065 Zr 0.48553 0.00622 0.48555
 O1066 O 0.49636 0.01807 0.49642
 Zr1067 Zr 0.50622 -0.01448 0.48569
 O1068 O 0.51803 -0.00361 0.49655
 O1069 O 0.51158 0.01162 0.51176
 O1070 O 0.48845 -0.01153 0.48854
 C1071 C 0.51133 0.03709 0.51179
 C1072 C 0.51147 0.01158 0.53725
 C1073 C 0.53714 0.01146 0.51158
 C1074 C 0.48792 -0.03628 0.48833
 C1075 C 0.46367 -0.01193 0.48805
 C1076 C 0.48816 -0.01190 0.46377
 H1077 H 0.47392 0.00566 0.50574
 H1078 H 0.50565 0.00581 0.47410
 H1079 H 0.51661 0.01663 0.51677
 H1080 H 0.50548 -0.02603 0.50587
 H1081 H 0.48926 -0.02428 0.52647
 H1082 H 0.51022 -0.02573 0.52559
 H1083 H 0.49081 0.02551 0.47467
 H1084 H 0.50755 0.03343 0.48314
 H1085 H 0.46689 -0.01905 0.51893
 H1086 H 0.48096 0.01915 0.53325
 H1087 H 0.51735 -0.00811 0.46660
 H1088 H 0.53179 0.00577 0.48198
 H1089 H 0.48223 0.03215 0.50580
 H1090 H 0.46617 0.01714 0.49150
 H1091 H 0.53206 -0.01783 0.50598
 H1092 H 0.51698 -0.03385 0.49186
 O1093 O 0.50215 0.53186 0.01670
 O1094 O 0.48062 0.52765 0.01312
 O1095 O 0.51667 0.50221 0.03191
 O1096 O 0.51348 0.48145 0.02863
 O1097 O 0.53197 0.51654 0.00233
 O1098 O 0.52763 0.51358 -0.01958
 O1099 O 0.48286 0.46831 -0.00253
 O1100 O 0.48705 0.47163 0.01881
 O1101 O 0.46846 0.49704 -0.01701
 O1102 O 0.47284 0.51982 -0.01344
 O1103 O 0.49710 0.48271 -0.03144
 O1104 O 0.51814 0.48645 -0.02881
 O1105 O 0.49706 0.46831 -0.01677
 O1106 O 0.51995 0.47271 -0.01329
 O1107 O 0.48291 0.49694 -0.03150
 O1108 O 0.48683 0.51804 -0.02886
 O1109 O 0.46853 0.48276 -0.00287
 O1110 O 0.47214 0.48776 0.01918
 O1111 O 0.51646 0.53187 0.00248
 O1112 O 0.51350 0.52755 -0.01957
 O1113 O 0.53208 0.50216 0.01643
 O1114 O 0.52760 0.48028 0.01292
 O1115 O 0.50241 0.51646 0.03191
 O1116 O 0.48064 0.51198 0.02764
 Zr1117 Zr 0.49388 0.51449 0.01462
 O1118 O 0.48222 0.50363 0.00369
 Zr1119 Zr 0.51472 0.49378 0.01459
 O1120 O 0.50372 0.48211 0.00378
 Zr1121 Zr 0.51465 0.51458 -0.00613
 O1122 O 0.50378 0.50362 -0.01775
 Zr1123 Zr 0.48539 0.48532 0.00614
 O1124 O 0.49632 0.49610 0.01796
 Zr1125 Zr 0.48542 0.50595 -0.01465
 O1126 O 0.49626 0.51784 -0.00381
 Zr1127 Zr 0.50607 0.48527 -0.01457
 O1128 O 0.51801 0.49617 -0.00383
 O1129 O 0.51153 0.51140 0.01148
 O1130 O 0.48832 0.48821 -0.01163
 C1131 C 0.51124 0.53690 0.01154
 C1132 C 0.51149 0.51129 0.03694
 C1133 C 0.53706 0.51130 0.01132
 C1134 C 0.48788 0.46339 -0.01172
 C1135 C 0.46359 0.48781 -0.01203
 C1136 C 0.48790 0.48771 -0.03637
 H1137 H 0.47386 0.50541 0.00557
 H1138 H 0.50561 0.50541 -0.02613
 H1139 H 0.51655 0.51641 0.01649
 H1140 H 0.50545 0.47373 0.00560
 H1141 H 0.48931 0.47554 0.02632
 H1142 H 0.51027 0.47404 0.02527
 H1143 H 0.49065 0.52520 -0.02561
 H1144 H 0.50732 0.53323 -0.01707
 H1145 H 0.46690 0.48073 0.01884
 H1146 H 0.48096 0.51888 0.03306
 H1147 H 0.52518 0.49060 -0.02569
 H1148 H 0.53323 0.50728 -0.01721
 H1149 H 0.48214 0.53189 0.00560
 H1150 H 0.46612 0.51693 -0.00863
 H1151 H 0.53219 0.48209 0.00568
 H1152 H 0.51701 0.46593 -0.00859
 O1153 O 0.78227 0.25186 0.48343
 O1154 O 0.77805 0.23033 0.48683
 O1155 O 0.75264 0.26644 0.46821
 O1156 O 0.73189 0.26316 0.47148
 O1157 O 0.76690 0.28171 0.49797
 O1158 O 0.76392 0.27735 0.51963
 O1159 O 0.71880 0.23264 0.50282
 O1160 O 0.72200 0.23679 0.48146
 O1161 O 0.74749 0.21820 0.51721
 O1162 O 0.77005 0.22223 0.51390
 O1163 O 0.73331 0.24695 0.53166
 O1164 O 0.73657 0.26948 0.52760
 O1165 O 0.71887 0.24683 0.51707
 O1166 O 0.72294 0.26950 0.51375
 O1167 O 0.74749 0.23272 0.53167
 O1168 O 0.77015 0.23614 0.52754
 O1169 O 0.73321 0.21828 0.50308
 O1170 O 0.73812 0.22186 0.48102
 O1171 O 0.78237 0.26603 0.49780
 O1172 O 0.77809 0.26297 0.51959
 O1173 O 0.75261 0.28178 0.48375
 O1174 O 0.73073 0.27732 0.48718
 O1175 O 0.76688 0.25218 0.46817
 O1176 O 0.76230 0.23040 0.47237
 Zr1177 Zr 0.76489 0.24359 0.48543
 O1178 O 0.75409 0.23194 0.49642
 Zr1179 Zr 0.74422 0.26443 0.48551
 O1180 O 0.73257 0.25348 0.49638
 Zr1181 Zr 0.76502 0.26431 0.50627
 O1182 O 0.75412 0.25349 0.51797
 Zr1183 Zr 0.73576 0.23514 0.49406
 O1184 O 0.74649 0.24603 0.48215
 Zr1185 Zr 0.75647 0.23513 0.51476
 O1186 O 0.76821 0.24594 0.50382
 Zr1187 Zr 0.73577 0.25587 0.51473
 O1188 O 0.74666 0.26767 0.50390
 O1189 O 0.76184 0.26125 0.48863
 O1190 O 0.73871 0.23810 0.51182
 C1191 C 0.78736 0.26088 0.48867
 C1192 C 0.76171 0.26128 0.46316
 C1193 C 0.76170 0.28678 0.48893
 C1194 C 0.71393 0.23766 0.51203
 C1195 C 0.73825 0.21333 0.51224
 C1196 C 0.73830 0.23775 0.53657
 H1197 H 0.75583 0.22358 0.49451
 H1198 H 0.75598 0.25534 0.52631
 H1199 H 0.76688 0.26629 0.48366
 H1200 H 0.72418 0.25520 0.49456
 H1201 H 0.72588 0.23903 0.47392
 H1202 H 0.72447 0.25999 0.47486
 H1203 H 0.76734 0.24121 0.53411
 H1204 H 0.78219 0.25534 0.51827
 H1205 H 0.73108 0.21663 0.48140
 H1206 H 0.76918 0.23072 0.46694
 H1207 H 0.74200 0.26686 0.53395
 H1208 H 0.75615 0.28129 0.51860
 H1209 H 0.78205 0.23159 0.49453
 H1210 H 0.76740 0.21590 0.50846
 H1211 H 0.73241 0.28175 0.49455
 H1212 H 0.71645 0.26673 0.50857
 O1213 O 0.71814 0.73384 0.00209
 O1214 O 0.72232 0.73750 -0.01944
 O1215 O 0.74781 0.71854 0.01648
 O1216 O 0.76855 0.72182 0.01322
 O1217 O 0.73363 0.74827 0.03198
 O1218 O 0.73668 0.76994 0.02772
 O1219 O 0.78164 0.75322 -0.01717
 O1220 O 0.77838 0.73183 -0.01307
 O1221 O 0.75293 0.76768 -0.03152
 O1222 O 0.73015 0.76405 -0.02716
 O1223 O 0.76718 0.78205 -0.00280
 O1224 O 0.76393 0.77799 0.01971
 O1225 O 0.78161 0.76743 -0.00294
 O1226 O 0.77753 0.76407 0.01975
 O1227 O 0.75301 0.78211 -0.01705
 O1228 O 0.73188 0.77942 -0.01317
 O1229 O 0.76722 0.75356 -0.03150
 O1230 O 0.76225 0.73151 -0.02800
 O1231 O 0.71816 0.74800 0.01646
 O1232 O 0.72246 0.77007 0.01362
 O1233 O 0.74787 0.73401 0.03195
 O1234 O 0.76973 0.73744 0.02747
 O1235 O 0.73353 0.71861 0.00226
 O1236 O 0.73798 0.72297 -0.01950
 Zr1237 Zr 0.73549 0.73594 -0.00621
 O1238 O 0.74634 0.74693 -0.01783
 Zr1239 Zr 0.75624 0.73585 0.01458
 O1240 O 0.76789 0.74676 0.00367
 Zr1241 Zr 0.73545 0.75663 0.01463
 O1242 O 0.74634 0.76833 0.00378
 Zr1243 Zr 0.76466 0.74449 -0.01467
 O1244 O 0.75389 0.73259 -0.00382
 Zr1245 Zr 0.74401 0.76525 -0.01457
 O1246 O 0.73215 0.75437 -0.00377
 Zr1247 Zr 0.76471 0.76510 0.00611
 O1248 O 0.75383 0.75423 0.01790
 O1249 O 0.73861 0.73902 0.01146
 O1250 O 0.76176 0.76225 -0.01166
 C1251 C 0.71312 0.73896 0.01121
 C1252 C 0.73872 0.71353 0.01131
 C1253 C 0.73882 0.73920 0.03700
 C1254 C 0.78653 0.76241 -0.01214
 C1255 C 0.76217 0.76273 -0.03641
 C1256 C 0.76221 0.78699 -0.01201
 H1257 H 0.74457 0.74507 -0.02620
 H1258 H 0.74441 0.77668 0.00555
 H1259 H 0.73361 0.73400 0.01648
 H1260 H 0.77627 0.74493 0.00537
 H1261 H 0.77448 0.72430 -0.01087
 H1262 H 0.77599 0.72522 0.01010
 H1263 H 0.72476 0.77616 -0.00927
 H1264 H 0.71678 0.76761 0.00741
 H1265 H 0.76929 0.73187 -0.03322
 H1266 H 0.73108 0.71755 -0.01919
 H1267 H 0.75840 0.78427 0.01714
 H1268 H 0.74444 0.76884 0.03163
 H1269 H 0.71807 0.74500 -0.01788
 H1270 H 0.73306 0.75929 -0.03391
 H1271 H 0.76809 0.74482 0.03191
 H1272 H 0.78402 0.75889 0.01696
 O1273 O 1.00252 0.21761 0.23328
 O1274 O 0.98096 0.22183 0.23692
 O1275 O 1.01697 0.24721 0.21798
 O1276 O 1.01365 0.26798 0.22122
 O1277 O 1.03239 0.23309 0.24772
 O1278 O 1.02811 0.23616 0.26939
 O1279 O 0.98325 0.28113 0.25263
 O1280 O 0.98743 0.27790 0.23124
 O1281 O 0.96889 0.25246 0.26703
 O1282 O 0.97323 0.22967 0.26342
 O1283 O 0.99765 0.26663 0.28148
 O1284 O 1.02013 0.26344 0.27739
 O1285 O 0.99745 0.28109 0.26687
 O1286 O 1.02016 0.27703 0.26346
 O1287 O 0.98337 0.25249 0.28151
 O1288 O 0.98717 0.23138 0.27881
 O1289 O 0.96892 0.26671 0.25288
 O1290 O 0.97249 0.26177 0.23085
 O1291 O 1.01687 0.21764 0.24745
 O1292 O 1.01400 0.22195 0.26951
 O1293 O 1.03238 0.24732 0.23345
 O1294 O 1.02793 0.26918 0.23685
 O1295 O 1.00273 0.23294 0.21806
 O1296 O 0.98096 0.23746 0.22235
 Zr1297 Zr 0.99422 0.23497 0.23536
 O1298 O 0.98260 0.24585 0.24631
 Zr1299 Zr 1.01502 0.25569 0.23527
 O1300 O 1.00412 0.26737 0.24616
 Zr1301 Zr 1.01503 0.23492 0.25607
 O1302 O 1.00418 0.24583 0.26774
 Zr1303 Zr 0.98578 0.26417 0.24387
 O1304 O 0.99662 0.25336 0.23199
 Zr1305 Zr 0.98583 0.24352 0.26464
 O1306 O 0.99664 0.23164 0.25378
 Zr1307 Zr 1.00653 0.26419 0.26451
 O1308 O 1.01832 0.25330 0.25366
 O1309 O 1.01188 0.23808 0.23845
 O1310 O 0.98876 0.26126 0.26163
 C1311 C 1.01163 0.21259 0.23840
 C1312 C 1.01179 0.23810 0.21299
 C1313 C 1.03742 0.23826 0.23864
 C1314 C 0.98825 0.28602 0.26185
 C1315 C 0.96400 0.26168 0.26205
 C1316 C 0.98843 0.26166 0.28640
 H1317 H 0.97423 0.24408 0.24444
 H1318 H 1.00594 0.24390 0.27610
 H1319 H 1.01691 0.23307 0.23345
 H1320 H 1.00583 0.27575 0.24433
 H1321 H 0.98963 0.27400 0.22370
 H1322 H 1.01059 0.27545 0.22462
 H1323 H 0.99111 0.22427 0.27557
 H1324 H 1.00780 0.21627 0.26705
 H1325 H 0.96728 0.26882 0.23119
 H1326 H 0.98127 0.23054 0.21696
 H1327 H 1.01762 0.25783 0.28363
 H1328 H 1.03204 0.24391 0.26828
 H1329 H 0.98254 0.21754 0.24440
 H1330 H 0.96648 0.23259 0.25866
 H1331 H 1.03234 0.26756 0.24425
 H1332 H 1.01732 0.28356 0.25836
 O1333 O 0.74775 1.03205 0.73339
 O1334 O 0.76927 1.02785 0.73682
 O1335 O 0.73322 1.00239 0.71817
 O1336 O 0.73652 0.98164 0.72148
 O1337 O 0.71789 1.01667 0.74791
 O1338 O 0.72221 1.01370 0.76957
 O1339 O 0.76708 0.96864 0.75291
 O1340 O 0.76291 0.97178 0.73153
 O1341 O 0.78140 0.99740 0.76725
 O1342 O 0.77732 1.01993 0.76393
 O1343 O 0.75270 0.98314 0.78168
 O1344 O 0.73015 0.98636 0.77759
 O1345 O 0.75287 0.96870 0.76714
 O1346 O 0.73018 0.97270 0.76374
 O1347 O 0.76690 0.99735 0.78168
 O1348 O 0.76336 1.02001 0.77754
 O1349 O 0.78137 0.98309 0.75316
 O1350 O 0.77780 0.98794 0.73107
 O1351 O 0.73355 1.03214 0.74773
 O1352 O 0.73659 1.02788 0.76954
 O1353 O 0.71785 1.00237 0.73369
 O1354 O 0.72233 0.98049 0.73716
 O1355 O 0.74746 1.01665 0.71813
 O1356 O 0.76924 1.01208 0.72238
 Zr1357 Zr 0.75602 1.01468 0.73541
 O1358 O 0.76767 1.00391 0.74644
 Zr1359 Zr 0.73522 0.99398 0.73549
 O1360 O 0.74617 0.98236 0.74640
 Zr1361 Zr 0.73528 1.01480 0.75622
 O1362 O 0.74610 1.00393 0.76796
 Zr1363 Zr 0.76452 0.98557 0.74410
 O1364 O 0.75362 0.99627 0.73216
 Zr1365 Zr 0.76445 1.00632 0.76477
 O1366 O 0.75364 1.01803 0.75380
 Zr1367 Zr 0.74377 0.98557 0.76474
 O1368 O 0.73196 0.99643 0.75388
 O1369 O 0.73837 1.01161 0.73859
 O1370 O 0.76153 0.98855 0.76185
 C1371 C 0.73871 1.03712 0.73861
 C1372 C 0.73838 1.01147 0.71311
 C1373 C 0.71283 1.01146 0.73886
 C1374 C 0.76208 0.96378 0.76214
 C1375 C 0.78629 0.98816 0.76232
 C1376 C 0.76189 0.98815 0.78659
 H1377 H 0.77604 1.00567 0.74454
 H1378 H 0.74423 1.00580 0.77630
 H1379 H 0.73333 1.01664 0.73361
 H1380 H 0.74448 0.97397 0.74459
 H1381 H 0.76066 0.97563 0.72398
 H1382 H 0.73970 0.97422 0.72488
 H1383 H 0.75836 1.01715 0.78413
 H1384 H 0.74420 1.03202 0.76820
 H1385 H 0.78305 0.98092 0.73147
 H1386 H 0.76892 1.01895 0.71693
 H1387 H 0.73277 0.99176 0.78397
 H1388 H 0.71831 1.00591 0.76855
 H1389 H 0.76800 1.03186 0.74450
 H1390 H 0.78365 1.01731 0.75847
 H1391 H 0.71790 0.98217 0.74453
 H1392 H 0.73301 0.96618 0.75863
 O1393 O 0.71824 0.51687 0.24783
 O1394 O 0.72244 0.51343 0.26935
 O1395 O 0.74790 0.53213 0.23332
 O1396 O 0.76864 0.52885 0.23660
 O1397 O 0.73367 0.50236 0.21796
 O1398 O 0.73662 0.48072 0.22227
 O1399 O 0.78167 0.49743 0.26714
 O1400 O 0.77850 0.51880 0.26300
 O1401 O 0.75289 0.48306 0.28147
 O1402 O 0.73039 0.48628 0.27736
 O1403 O 0.76721 0.46864 0.25272
 O1404 O 0.76403 0.47274 0.23020
 O1405 O 0.78165 0.48322 0.25293
 O1406 O 0.77763 0.48663 0.23023
 O1407 O 0.75301 0.46861 0.26693
 O1408 O 0.73034 0.47272 0.26338
 O1409 O 0.76719 0.49716 0.28145
 O1410 O 0.76234 0.51924 0.27788
 O1411 O 0.71817 0.50253 0.23363
 O1412 O 0.72246 0.48072 0.23666
 O1413 O 0.74795 0.51659 0.21794
 O1414 O 0.76982 0.51317 0.22243
 O1415 O 0.73364 0.53214 0.24756
 O1416 O 0.73819 0.52788 0.26933
 Zr1417 Zr 0.73561 0.51486 0.25610
 O1418 O 0.74639 0.50384 0.26774
 Zr1419 Zr 0.75632 0.51482 0.23530
 O1420 O 0.76795 0.50393 0.24625
 Zr1421 Zr 0.73552 0.49406 0.23534
 O1422 O 0.74641 0.48233 0.24616
 Zr1423 Zr 0.76473 0.50621 0.26459
 O1424 O 0.75401 0.51814 0.25370
 Zr1425 Zr 0.74401 0.48551 0.26451
 O1426 O 0.73229 0.49647 0.25371
 Zr1427 Zr 0.76477 0.48559 0.24383
 O1428 O 0.75389 0.49643 0.23203
 O1429 O 0.73868 0.51169 0.23844
 O1430 O 0.76178 0.48845 0.26160
 C1431 C 0.71317 0.51165 0.23880
 C1432 C 0.73882 0.53717 0.23849
 C1433 C 0.73888 0.51141 0.21290
 C1434 C 0.78656 0.48823 0.26213
 C1435 C 0.76212 0.48801 0.28636
 C1436 C 0.76221 0.46372 0.26191
 H1437 H 0.74463 0.50573 0.27611
 H1438 H 0.74456 0.47400 0.24428
 H1439 H 0.73366 0.51668 0.23340
 H1440 H 0.77634 0.50575 0.24456
 H1441 H 0.77464 0.52634 0.26075
 H1442 H 0.77605 0.52547 0.23980
 H1443 H 0.73322 0.46612 0.25840
 H1444 H 0.71831 0.48207 0.24426
 H1445 H 0.76936 0.51885 0.28313
 H1446 H 0.73131 0.53332 0.26902
 H1447 H 0.75858 0.46639 0.23277
 H1448 H 0.74443 0.48170 0.21841
 H1449 H 0.71845 0.50573 0.26808
 H1450 H 0.73293 0.49183 0.28364
 H1451 H 0.76816 0.50580 0.21799
 H1452 H 0.78415 0.49174 0.23307
 O1453 O 0.49788 0.26634 0.78248
 O1454 O 0.51937 0.26291 0.77829
 O1455 O 0.48334 0.28164 0.75285
 O1456 O 0.48665 0.27840 0.73211
 O1457 O 0.46799 0.25188 0.76703
 O1458 O 0.47228 0.23024 0.76406
 O1459 O 0.51715 0.24705 0.71903
 O1460 O 0.51305 0.26839 0.72227
 O1461 O 0.53147 0.23254 0.74775
 O1462 O 0.52739 0.23571 0.77027
 O1463 O 0.50271 0.21817 0.73341
 O1464 O 0.48021 0.22229 0.73660
 O1465 O 0.50294 0.23282 0.71902
 O1466 O 0.48024 0.23622 0.72305
 O1467 O 0.51692 0.21810 0.74761
 O1468 O 0.51338 0.22218 0.77030
 O1469 O 0.53146 0.24669 0.73349
 O1470 O 0.52792 0.26876 0.73843
 O1471 O 0.48365 0.25203 0.78253
 O1472 O 0.48668 0.23021 0.77821
 O1473 O 0.46797 0.26613 0.75277
 O1474 O 0.47247 0.26273 0.73089
 O1475 O 0.49758 0.28162 0.76712
 O1476 O 0.51937 0.27736 0.76254
 Zr1477 Zr 0.50614 0.26435 0.76511
 O1478 O 0.51777 0.25333 0.75432
 Zr1479 Zr 0.48534 0.26435 0.74441
 O1480 O 0.49628 0.25348 0.73275
 Zr1481 Zr 0.48537 0.24356 0.76518
 O1482 O 0.49616 0.23184 0.75426
 Zr1483 Zr 0.51462 0.25576 0.73600
 O1484 O 0.50373 0.26767 0.74672
 Zr1485 Zr 0.51452 0.23499 0.75665
 O1486 O 0.50373 0.24595 0.76840
 Zr1487 Zr 0.49384 0.23513 0.73590
 O1488 O 0.48205 0.24596 0.74680
 O1489 O 0.48848 0.26119 0.76203
 O1490 O 0.51161 0.23799 0.73890
 C1491 C 0.48883 0.26113 0.78755
 C1492 C 0.48850 0.28666 0.76195
 C1493 C 0.46294 0.26094 0.76183
 C1494 C 0.51214 0.23786 0.71412
 C1495 C 0.53636 0.23751 0.73853
 C1496 C 0.51189 0.21323 0.73840
 H1497 H 0.52613 0.25521 0.75609
 H1498 H 0.49428 0.22350 0.75609
 H1499 H 0.48344 0.26617 0.76707
 H1500 H 0.49459 0.25532 0.72437
 H1501 H 0.51081 0.27593 0.72615
 H1502 H 0.48985 0.27503 0.72469
 H1503 H 0.50841 0.21558 0.76740
 H1504 H 0.49427 0.23155 0.78237
 H1505 H 0.53318 0.26837 0.73141
 H1506 H 0.51905 0.28281 0.76941
 H1507 H 0.48275 0.21595 0.74208
 H1508 H 0.46844 0.23121 0.75625
 H1509 H 0.51814 0.25518 0.78223
 H1510 H 0.53367 0.24125 0.76773
 H1511 H 0.46801 0.25537 0.73256
 H1512 H 0.48308 0.24133 0.71654
 O1513 O 0.21791 0.73376 0.50233
 O1514 O 0.22210 0.73721 0.48079
 O1515 O 0.24755 0.71843 0.51678
 O1516 O 0.26831 0.72172 0.51339
 O1517 O 0.23336 0.74822 0.53219
 O1518 O 0.23644 0.76990 0.52786
 O1519 O 0.28135 0.75319 0.48301
 O1520 O 0.27821 0.73183 0.48718
 O1521 O 0.25253 0.76748 0.46863
 O1522 O 0.23000 0.76421 0.47278
 O1523 O 0.26685 0.78197 0.49729
 O1524 O 0.26323 0.77763 0.52009
 O1525 O 0.28131 0.76746 0.49719
 O1526 O 0.27866 0.76374 0.51832
 O1527 O 0.25264 0.78198 0.48310
 O1528 O 0.23000 0.77787 0.48669
 O1529 O 0.26685 0.75340 0.46868
 O1530 O 0.26204 0.73134 0.47227
 O1531 O 0.21789 0.74808 0.51655
 O1532 O 0.22220 0.76987 0.51358
 O1533 O 0.24748 0.73385 0.53213
 O1534 O 0.26955 0.73712 0.52768
 O1535 O 0.23327 0.71846 0.50256
 O1536 O 0.23783 0.72271 0.48081
 Zr1537 Zr 0.23528 0.73574 0.49403
 O1538 O 0.24606 0.74674 0.48238
 Zr1539 Zr 0.25599 0.73574 0.51483
 O1540 O 0.26758 0.74669 0.50389
 Zr1541 Zr 0.23526 0.75653 0.51482
 O1542 O 0.24609 0.76826 0.50393
 Zr1543 Zr 0.26440 0.74438 0.48554
 O1544 O 0.25368 0.73244 0.49643
 Zr1545 Zr 0.24366 0.76507 0.48560
 O1546 O 0.23198 0.75413 0.49645
 Zr1547 Zr 0.26445 0.76503 0.50623
 O1548 O 0.25367 0.75415 0.51816
 O1549 O 0.23837 0.73890 0.51169
 O1550 O 0.26143 0.76214 0.48849
 C1551 C 0.21286 0.73898 0.51138
 C1552 C 0.23846 0.71341 0.51163
 C1553 C 0.23848 0.73911 0.53720
 C1554 C 0.28623 0.76242 0.48800
 C1555 C 0.26177 0.76253 0.46374
 C1556 C 0.26185 0.78688 0.48810
 H1557 H 0.24430 0.74483 0.47402
 H1558 H 0.24425 0.77660 0.50582
 H1559 H 0.23333 0.73392 0.51670
 H1560 H 0.27599 0.74498 0.50568
 H1561 H 0.27436 0.72425 0.48930
 H1562 H 0.27571 0.72513 0.51018
 H1563 H 0.23286 0.78444 0.49174
 H1564 H 0.21809 0.76860 0.50594
 H1565 H 0.26908 0.73171 0.46704
 H1566 H 0.23092 0.71730 0.48111
 H1567 H 0.25856 0.78443 0.51714
 H1568 H 0.24406 0.76864 0.53201
 H1569 H 0.21806 0.74487 0.48213
 H1570 H 0.23259 0.75874 0.46646
 H1571 H 0.26693 0.74313 0.53349
 H1572 H 0.27544 0.75987 0.52548
 O1573 O 0.25217 0.26642 0.96849
 O1574 O 0.23066 0.26303 0.97272
 O1575 O 0.26676 0.28165 0.99813
 O1576 O 0.26343 0.27837 1.01889
 O1577 O 0.28206 0.25193 0.98388
 O1578 O 0.27775 0.23027 0.98684
 O1579 O 0.23294 0.24695 1.03193
 O1580 O 0.23705 0.26832 1.02876
 O1581 O 0.21856 0.23260 1.00313
 O1582 O 0.22265 0.23587 0.98063
 O1583 O 0.24725 0.21818 1.01745
 O1584 O 0.26981 0.22223 1.01414
 O1585 O 0.24716 0.23274 1.03188
 O1586 O 0.26982 0.23606 1.02782
 O1587 O 0.23305 0.21817 1.00324
 O1588 O 0.23663 0.22228 0.98056
 O1589 O 0.21861 0.24667 1.01747
 O1590 O 0.22216 0.26876 1.01262
 O1591 O 0.26637 0.25208 0.96840
 O1592 O 0.26337 0.23028 0.97268
 O1593 O 0.28210 0.26613 0.99818
 O1594 O 0.27762 0.26268 1.02006
 O1595 O 0.25251 0.28168 0.98388
 O1596 O 0.23073 0.27747 0.98849
 Zr1597 Zr 0.24393 0.26442 0.98587
 O1598 O 0.23229 0.25339 0.99664
 Zr1599 Zr 0.26474 0.26434 1.00656
 O1600 O 0.25380 0.25344 1.01819
 Zr1601 Zr 0.26468 0.24360 0.98574
 O1602 O 0.25386 0.23186 0.99662
 Zr1603 Zr 0.23545 0.25574 1.01498
 O1604 O 0.24634 0.26768 1.00427
 Zr1605 Zr 0.23551 0.23506 0.99424
 O1606 O 0.24631 0.24603 0.98253
 Zr1607 Zr 0.25620 0.23510 1.01498
 O1608 O 0.26800 0.24595 1.00412
 O1609 O 0.26159 0.26123 0.98893
 O1610 O 0.23844 0.23798 1.01201
 C1611 C 0.26120 0.26119 0.96341
 C1612 C 0.26161 0.28669 0.98905
 C1613 C 0.28712 0.26097 0.98909
 C1614 C 0.23796 0.23775 1.03681
 C1615 C 0.21368 0.23752 1.01239
 C1616 C 0.23804 0.21328 1.01245
 H1617 H 0.22392 0.25529 0.99489
 H1618 H 0.25573 0.22353 0.99476
 H1619 H 0.26662 0.26621 0.98389
 H1620 H 0.25550 0.25525 1.02658
 H1621 H 0.23930 0.27587 1.02490
 H1622 H 0.26026 0.27497 1.02631
 H1623 H 0.24157 0.21565 0.98346
 H1624 H 0.25575 0.23160 0.96855
 H1625 H 0.21691 0.26835 1.01964
 H1626 H 0.23105 0.28291 0.98162
 H1627 H 0.26713 0.21581 1.00883
 H1628 H 0.28165 0.23127 0.99462
 H1629 H 0.23190 0.25532 0.96873
 H1630 H 0.21635 0.24139 0.98320
 H1631 H 0.28205 0.25531 1.01839
 H1632 H 0.26706 0.24127 1.03430
 C1633 C 0.29960 0.38634 0.79991
 C1634 C 0.30987 0.38064 0.79526
 C1635 C 0.31505 0.37015 0.80045
 C1636 C 0.31038 0.36446 0.81074
 C1637 C 0.30009 0.37017 0.81538
 C1638 C 0.29493 0.38066 0.81018
 C1639 C 0.29391 0.39788 0.79419
 N1640 N 0.28400 0.40323 0.79880
 N1641 N 0.27915 0.41307 0.79392
 C1642 C 0.28377 0.41840 0.78402
 N1643 N 0.29368 0.41305 0.77941
 N1644 N 0.29854 0.40322 0.78429
 C1645 C 0.27807 0.42994 0.77829
 C1646 C 0.28275 0.43562 0.76802
 C1647 C 0.27758 0.44612 0.76284
 C1648 C 0.26729 0.45179 0.76747
 C1649 C 0.26264 0.44613 0.77776
 C1650 C 0.26780 0.43563 0.78295
 H1651 H 0.31403 0.38433 0.78746
 H1652 H 0.32284 0.36651 0.79625
 H1653 H 0.29588 0.36655 0.82317
 H1654 H 0.28713 0.38436 0.81433
 H1655 H 0.29058 0.43195 0.76390
 H1656 H 0.28182 0.44988 0.75511
 H1657 H 0.25490 0.44990 0.78198
 H1658 H 0.26366 0.43197 0.79077
 C1659 C 0.29934 -0.11402 0.29947
 C1660 C 0.29475 -0.11963 0.30981
 C1661 C 0.29998 -0.13004 0.31510
 C1662 C 0.31031 -0.13576 0.31048
 C1663 C 0.31489 -0.13011 0.30010
 C1664 C 0.30962 -0.11970 0.29484
 C1665 C 0.29355 -0.10257 0.29367
 N1666 N 0.29811 -0.09730 0.28370
 N1667 N 0.29318 -0.08754 0.27875
 C1668 C 0.28326 -0.08220 0.28334
 N1669 N 0.27870 -0.08748 0.29331
 N1670 N 0.28363 -0.09724 0.29826
 C1671 C 0.27748 -0.07076 0.27755
 C1672 C 0.26719 -0.06508 0.28219
 C1673 C 0.26198 -0.05462 0.27697
 C1674 C 0.26659 -0.04900 0.26664
 C1675 C 0.27688 -0.05466 0.26200
 C1676 C 0.28209 -0.06512 0.26722
 H1677 H 0.28693 -0.11593 0.31395
 H1678 H 0.29576 -0.13354 0.32293
 H1679 H 0.32268 -0.13367 0.29584
 H1680 H 0.31373 -0.11606 0.28699
 H1681 H 0.26308 -0.06871 0.29005
 H1682 H 0.25426 -0.05084 0.28121
 H1683 H 0.28110 -0.05092 0.25426
 H1684 H 0.28993 -0.06879 0.26310
 C1685 C 0.80009 0.88687 0.80050
 C1686 C 0.81039 0.88119 0.79590
 C1687 C 0.81562 0.87075 0.80114
 C1688 C 0.81099 0.86506 0.81148
 C1689 C 0.80065 0.87079 0.81607
 C1690 C 0.79545 0.88123 0.81080
 C1691 C 0.79435 0.89835 0.79470
 N1692 N 0.78442 0.90370 0.79927
 N1693 N 0.77953 0.91348 0.79433
 C1694 C 0.78413 0.91878 0.78439
 N1695 N 0.79406 0.91343 0.77982
 N1696 N 0.79896 0.90365 0.78476
 C1697 C 0.77838 0.93025 0.77858
 C1698 C 0.78303 0.93589 0.76827
 C1699 C 0.77782 0.94633 0.76302
 C1700 C 0.76750 0.95200 0.76761
 C1701 C 0.76288 0.94639 0.77794
 C1702 C 0.76809 0.93594 0.78320
 H1703 H 0.81454 0.88485 0.78807
 H1704 H 0.82343 0.86719 0.79691
 H1705 H 0.79639 0.86726 0.82388
 H1706 H 0.78763 0.88492 0.81492
 H1707 H 0.79087 0.93222 0.76417
 H1708 H 0.78204 0.95005 0.75526
 H1709 H 0.75513 0.95015 0.78214
 H1710 H 0.76396 0.93232 0.79105
 C1711 C 0.45061 0.86460 0.29944
 C1712 C 0.44033 0.87028 0.29482
 C1713 C 0.43506 0.88069 0.30007
 C1714 C 0.43964 0.88635 0.31045
 C1715 C 0.44996 0.88062 0.31507
 C1716 C 0.45520 0.87020 0.30978
 C1717 C 0.45639 0.85314 0.29364
 N1718 N 0.46632 0.84780 0.29823
 N1719 N 0.47125 0.83804 0.29328
 C1720 C 0.46668 0.83276 0.28331
 N1721 N 0.45675 0.83810 0.27873
 N1722 N 0.45183 0.84786 0.28367
 C1723 C 0.47246 0.82131 0.27751
 C1724 C 0.46784 0.81567 0.26720
 C1725 C 0.47304 0.80521 0.26197
 C1726 C 0.48334 0.79954 0.26660
 C1727 C 0.48796 0.80517 0.27692
 C1728 C 0.48275 0.81563 0.28215
 H1729 H 0.43622 0.86664 0.28696
 H1730 H 0.42727 0.88426 0.29582
 H1731 H 0.45419 0.88412 0.32290
 H1732 H 0.46301 0.86650 0.31392
 H1733 H 0.46000 0.81933 0.26308
 H1734 H 0.46882 0.80146 0.25423
 H1735 H 0.49568 0.80139 0.28116
 H1736 H 0.48686 0.81926 0.29000
 C1737 C -0.05004 0.86401 0.80039
 C1738 C -0.06035 0.86968 0.79580
 C1739 C -0.06556 0.88015 0.80103
 C1740 C -0.06089 0.88588 0.81133
 C1741 C -0.05054 0.88016 0.81591
 C1742 C -0.04536 0.86969 0.81065
 C1743 C -0.04432 0.85250 0.79461
 N1744 N -0.03438 0.84716 0.79917
 N1745 N -0.02951 0.83735 0.79425
 C1746 C -0.03414 0.83203 0.78434
 N1747 N -0.04408 0.83737 0.77979
 N1748 N -0.04896 0.84717 0.78471
 C1749 C -0.02841 0.82052 0.77856
 C1750 C -0.03309 0.81485 0.76828
 C1751 C -0.02790 0.80438 0.76304
 C1752 C -0.01758 0.79872 0.76763
 C1753 C -0.01293 0.80436 0.77794
 C1754 C -0.01812 0.81483 0.78317
 H1755 H -0.06453 0.86600 0.78801
 H1756 H -0.07338 0.88370 0.79681
 H1757 H -0.04625 0.88371 0.82368
 H1758 H -0.03753 0.86601 0.81476
 H1759 H -0.04093 0.81852 0.76418
 H1760 H -0.03214 0.80064 0.75531
 H1761 H -0.00518 0.80060 0.78213
 H1762 H -0.01397 0.81847 0.79100
 C1763 C -0.04940 -0.11396 -0.04962
 C1764 C -0.04479 -0.11957 -0.05995
 C1765 C -0.05004 -0.12996 -0.06527
 C1766 C -0.06041 -0.13565 -0.06070
 C1767 C -0.06501 -0.12999 -0.05034
 C1768 C -0.05973 -0.11960 -0.04504
 C1769 C -0.04360 -0.10253 -0.04378
 N1770 N -0.04819 -0.09726 -0.03381
 N1771 N -0.04325 -0.08753 -0.02883
 C1772 C -0.03329 -0.08221 -0.03337
 N1773 N -0.02870 -0.08749 -0.04333
 N1774 N -0.03365 -0.09722 -0.04832
 C1775 C -0.02749 -0.07079 -0.02753
 C1776 C -0.01717 -0.06513 -0.03212
 C1777 C -0.01195 -0.05470 -0.02686
 C1778 C -0.01658 -0.04908 -0.01653
 C1779 C -0.02690 -0.05473 -0.01194
 C1780 C -0.03213 -0.06517 -0.01721
 H1781 H -0.03695 -0.11589 -0.06405
 H1782 H -0.04580 -0.13347 -0.07309
 H1783 H -0.07283 -0.13353 -0.04612
 H1784 H -0.06385 -0.11596 -0.03720
 H1785 H -0.01305 -0.06875 -0.03998
 H1786 H -0.00421 -0.05093 -0.03107
 H1787 H -0.03114 -0.05099 -0.00420
 H1788 H -0.03998 -0.06882 -0.01312
 C1789 C -0.04940 0.38555 0.45060
 C1790 C -0.04477 0.37994 0.44028
 C1791 C -0.04997 0.36950 0.43500
 C1792 C -0.06028 0.36375 0.43960
 C1793 C -0.06490 0.36941 0.44996
 C1794 C -0.05968 0.37985 0.45521
 C1795 C -0.04366 0.39704 0.45640
 N1796 N -0.04829 0.40235 0.46633
 N1797 N -0.04340 0.41213 0.47127
 C1798 C -0.03346 0.41747 0.46672
 N1799 N -0.02884 0.41217 0.45679
 N1800 N -0.03372 0.40239 0.45185
 C1801 C -0.02772 0.42896 0.47252
 C1802 C -0.01740 0.43462 0.46794
 C1803 C -0.01222 0.44510 0.47316
 C1804 C -0.01691 0.45078 0.48342
 C1805 C -0.02725 0.44513 0.48800
 C1806 C -0.03242 0.43465 0.48278
 H1807 H -0.03696 0.38365 0.43616
 H1808 H -0.04571 0.36599 0.42718
 H1809 H -0.07269 0.36583 0.45420
 H1810 H -0.06382 0.38349 0.46305
 H1811 H -0.01323 0.43096 0.46013
 H1812 H -0.00447 0.44886 0.46896
 H1813 H -0.03153 0.44892 0.49569
 H1814 H -0.04029 0.43100 0.48686
 C1815 C 0.44993 -0.11331 0.45022
 C1816 C 0.45459 -0.11899 0.43995
 C1817 C 0.44939 -0.12945 0.43471
 C1818 C 0.43904 -0.13515 0.43930
 C1819 C 0.43439 -0.12942 0.44960
 C1820 C 0.43962 -0.11896 0.45482
 C1821 C 0.45567 -0.10181 0.45597
 N1822 N 0.45105 -0.09647 0.46589
 N1823 N 0.45595 -0.08667 0.47079
 C1824 C 0.46589 -0.08135 0.46622
 N1825 N 0.47050 -0.08668 0.45631
 N1826 N 0.46561 -0.09648 0.45140
 C1827 C 0.47163 -0.06985 0.47199
 C1828 C 0.48193 -0.06418 0.46736
 C1829 C 0.48714 -0.05372 0.47258
 C1830 C 0.48250 -0.04807 0.48289
 C1831 C 0.47219 -0.05372 0.48750
 C1832 C 0.46698 -0.06419 0.48227
 H1833 H 0.46243 -0.11532 0.43584
 H1834 H 0.45367 -0.13301 0.42693
 H1835 H 0.42657 -0.13295 0.45383
 H1836 H 0.43546 -0.11526 0.46261
 H1837 H 0.48606 -0.06783 0.45952
 H1838 H 0.49489 -0.04996 0.46838
 H1839 H 0.46796 -0.04998 0.49524
 H1840 H 0.45913 -0.06784 0.48639
 C1841 C 0.45017 0.38599 -0.04939
 C1842 C 0.45483 0.38030 -0.05965
 C1843 C 0.44967 0.36979 -0.06484
 C1844 C 0.43937 0.36404 -0.06019
 C1845 C 0.43472 0.36979 -0.04989
 C1846 C 0.43991 0.38029 -0.04473
 C1847 C 0.45587 0.39755 -0.04369
 N1848 N 0.45125 0.40290 -0.03379
 N1849 N 0.45611 0.41275 -0.02894
 C1850 C 0.46601 0.41810 -0.03356
 N1851 N 0.47062 0.41275 -0.04346
 N1852 N 0.46577 0.40290 -0.04832
 C1853 C 0.47171 0.42965 -0.02786
 C1854 C 0.48198 0.43535 -0.03253
 C1855 C 0.48715 0.44586 -0.02737
 C1856 C 0.48251 0.45154 -0.01708
 C1857 C 0.47222 0.44587 -0.01243
 C1858 C 0.46705 0.43535 -0.01759
 H1859 H 0.46263 0.38400 -0.06381
 H1860 H 0.45394 0.36622 -0.07262
 H1861 H 0.42694 0.36622 -0.04562
 H1862 H 0.43575 0.38399 -0.03693
 H1863 H 0.48611 0.43168 -0.04035
 H1864 H 0.49488 0.44962 -0.03160
 H1865 H 0.46799 0.44963 -0.00470
 H1866 H 0.45923 0.43169 -0.01345
 C1867 C 0.79963 0.36382 0.45085
 C1868 C 0.80994 0.36949 0.45546
 C1869 C 0.81519 0.37992 0.45020
 C1870 C 0.81055 0.38556 0.43987
 C1871 C 0.80024 0.37988 0.43526
 C1872 C 0.79501 0.36945 0.44053
 C1873 C 0.79387 0.35236 0.45665
 N1874 N 0.78393 0.34703 0.45209
 N1875 N 0.77901 0.33727 0.45703
 C1876 C 0.78361 0.33196 0.46697
 N1877 N 0.79356 0.33728 0.47153
 N1878 N 0.79847 0.34705 0.46659
 C1879 C 0.77784 0.32050 0.47276
 C1880 C 0.78250 0.31483 0.48305
 C1881 C 0.77730 0.30436 0.48826
 C1882 C 0.76698 0.29871 0.48366
 C1883 C 0.76233 0.30437 0.47336
 C1884 C 0.76753 0.31484 0.46815
 H1885 H 0.81408 0.36584 0.46329
 H1886 H 0.82300 0.38354 0.45437
 H1887 H 0.79605 0.38347 0.42744
 H1888 H 0.78718 0.36577 0.43641
 H1889 H 0.79035 0.31847 0.48715
 H1890 H 0.78155 0.30058 0.49598
 H1891 H 0.75460 0.30061 0.46914
 H1892 H 0.76340 0.31849 0.46032
 C1893 C 0.80036 0.86412 -0.04982
 C1894 C 0.81062 0.86981 -0.04514
 C1895 C 0.81586 0.88028 -0.05032
 C1896 C 0.81127 0.88600 -0.06067
 C1897 C 0.80097 0.88026 -0.06533
 C1898 C 0.79576 0.86979 -0.06012
 C1899 C 0.79460 0.85260 -0.04410
 N1900 N 0.78470 0.84726 -0.04874
 N1901 N 0.77979 0.83745 -0.04387
 C1902 C 0.78435 0.83211 -0.03393
 N1903 N 0.79426 0.83745 -0.02930
 N1904 N 0.79917 0.84726 -0.03416
 C1905 C 0.77859 0.82060 -0.02821
 C1906 C 0.78319 0.81491 -0.01791
 C1907 C 0.77796 0.80443 -0.01274
 C1908 C 0.76766 0.79879 -0.01740
 C1909 C 0.76308 0.80446 -0.02772
 C1910 C 0.76831 0.81493 -0.03290
 H1911 H 0.81473 0.86613 -0.03731
 H1912 H 0.82363 0.88385 -0.04604
 H1913 H 0.79674 0.88380 -0.07315
 H1914 H 0.78797 0.86609 -0.06430
 H1915 H 0.79102 0.81855 -0.01376
 H1916 H 0.78215 0.80067 -0.00498
 H1917 H 0.75535 0.80072 -0.03196
 H1918 H 0.76421 0.81860 -0.04074
 C1919 C 0.79982 0.29948 0.38629
 C1920 C 0.79522 0.30981 0.38066
 C1921 C 0.80048 0.31509 0.37025
 C1922 C 0.81080 0.31047 0.36459
 C1923 C 0.81541 0.30013 0.37023
 C1924 C 0.81014 0.29487 0.38064
 C1925 C 0.79403 0.29368 0.39774
 N1926 N 0.79860 0.28372 0.40302
 N1927 N 0.79366 0.27877 0.41278
 C1928 C 0.78372 0.28335 0.41810
 N1929 N 0.77916 0.29331 0.41281
 N1930 N 0.78409 0.29825 0.40306
 C1931 C 0.77793 0.27754 0.42954
 C1932 C 0.76764 0.28217 0.43521
 C1933 C 0.76242 0.27694 0.44566
 C1934 C 0.76703 0.26661 0.45128
 C1935 C 0.77733 0.26198 0.44562
 C1936 C 0.78255 0.26722 0.43517
 H1937 H 0.78739 0.31393 0.38434
 H1938 H 0.79630 0.32291 0.36666
 H1939 H 0.82322 0.29595 0.36662
 H1940 H 0.81426 0.28703 0.38429
 H1941 H 0.76353 0.29003 0.43158
 H1942 H 0.75469 0.28117 0.44943
 H1943 H 0.78155 0.25424 0.44936
 H1944 H 0.79039 0.26310 0.43151
 C1945 C 0.80011 0.80096 -0.11340
 C1946 C 0.79546 0.81125 -0.11907
 C1947 C 0.80066 0.81650 -0.12952
 C1948 C 0.81100 0.81190 -0.13524
 C1949 C 0.81564 0.80158 -0.12952
 C1950 C 0.81042 0.79636 -0.11907
 C1951 C 0.79438 0.79519 -0.10190
 N1952 N 0.79901 0.78528 -0.09658
 N1953 N 0.79412 0.78036 -0.08678
 C1954 C 0.78418 0.78492 -0.08145
 N1955 N 0.77955 0.79483 -0.08678
 N1956 N 0.78444 0.79975 -0.09657
 C1957 C 0.77844 0.77913 -0.06996
 C1958 C 0.76812 0.78373 -0.06430
 C1959 C 0.76292 0.77849 -0.05384
 C1960 C 0.76758 0.76819 -0.04819
 C1961 C 0.77792 0.76362 -0.05383
 C1962 C 0.78312 0.76886 -0.06429
 H1963 H 0.78764 0.81537 -0.11538
 H1964 H 0.79639 0.82429 -0.13307
 H1965 H 0.82345 0.79735 -0.13307
 H1966 H 0.81457 0.78855 -0.11539
 H1967 H 0.76397 0.79155 -0.06795
 H1968 H 0.75515 0.78267 -0.05010
 H1969 H 0.78216 0.75589 -0.05009
 H1970 H 0.79098 0.76477 -0.06794
 C1971 C 0.30003 0.45001 0.86377
 C1972 C 0.29540 0.43973 0.86946
 C1973 C 0.30062 0.43452 0.87992
 C1974 C 0.31094 0.43917 0.88559
 C1975 C 0.31557 0.44946 0.87988
 C1976 C 0.31033 0.45466 0.86941
 C1977 C 0.29427 0.45573 0.85226
 N1978 N 0.29886 0.46566 0.84691
 N1979 N 0.29395 0.47054 0.83711
 C1980 C 0.28402 0.46592 0.83179
 N1981 N 0.27944 0.45600 0.83713
 N1982 N 0.28435 0.45112 0.84693
 C1983 C 0.27826 0.47166 0.82029
 C1984 C 0.26798 0.46699 0.81461
 C1985 C 0.26276 0.47219 0.80414
 C1986 C 0.26736 0.48252 0.79850
 C1987 C 0.27766 0.48716 0.80415
 C1988 C 0.28288 0.48196 0.81461
 H1989 H 0.28758 0.43558 0.86579
 H1990 H 0.29643 0.42673 0.88356
 H1991 H 0.32338 0.45366 0.88348
 H1992 H 0.31447 0.46246 0.86571
 H1993 H 0.26387 0.45915 0.81826
 H1994 H 0.25502 0.46797 0.80039
 H1995 H 0.28186 0.49492 0.80040
 H1996 H 0.29071 0.48610 0.81827
 C1997 C 0.29997 -0.04939 0.36407
 C1998 C 0.29540 -0.05969 0.36976
 C1999 C 0.30068 -0.06494 0.38018
 C2000 C 0.31104 -0.06032 0.38584
 C2001 C 0.31561 -0.04998 0.38010
 C2002 C 0.31030 -0.04476 0.36968
 C2003 C 0.29413 -0.04363 0.35259
 N2004 N 0.29866 -0.03369 0.34723
 N2005 N 0.29369 -0.02879 0.33747
 C2006 C 0.28373 -0.03340 0.33220
 N2007 N 0.27919 -0.04334 0.33756
 N2008 N 0.28417 -0.04823 0.34732
 C2009 C 0.27788 -0.02764 0.32073
 C2010 C 0.26756 -0.03230 0.31511
 C2011 C 0.26229 -0.02711 0.30465
 C2012 C 0.26687 -0.01680 0.29895
 C2013 C 0.27720 -0.01216 0.30456
 C2014 C 0.28246 -0.01734 0.31502
 H2015 H 0.28756 -0.06383 0.36612
 H2016 H 0.29645 -0.07274 0.38374
 H2017 H 0.32343 -0.04572 0.38361
 H2018 H 0.31440 -0.03693 0.36598
 H2019 H 0.26347 -0.04014 0.31879
 H2020 H 0.25455 -0.03136 0.30093
 H2021 H 0.28140 -0.00442 0.30077
 H2022 H 0.29032 -0.01320 0.31862
 C2023 C -0.04960 -0.04979 -0.11382
 C2024 C -0.04501 -0.06010 -0.11948
 C2025 C -0.05027 -0.06537 -0.12990
 C2026 C -0.06063 -0.06078 -0.13558
 C2027 C -0.06522 -0.05043 -0.12987
 C2028 C -0.05993 -0.04518 -0.11946
 C2029 C -0.04380 -0.04399 -0.10236
 N2030 N -0.04836 -0.03405 -0.09704
 N2031 N -0.04342 -0.02911 -0.08728
 C2032 C -0.03346 -0.03368 -0.08198
 N2033 N -0.02889 -0.04363 -0.08730
 N2034 N -0.03384 -0.04856 -0.09706
 C2035 C -0.02765 -0.02788 -0.07052
 C2036 C -0.01734 -0.03251 -0.06487
 C2037 C -0.01210 -0.02728 -0.05442
 C2038 C -0.01671 -0.01697 -0.04876
 C2039 C -0.02703 -0.01235 -0.05440
 C2040 C -0.03227 -0.01758 -0.06485
 H2041 H -0.03717 -0.06422 -0.11582
 H2042 H -0.04603 -0.07318 -0.13344
 H2043 H -0.07304 -0.04619 -0.13339
 H2044 H -0.06405 -0.03735 -0.11578
 H2045 H -0.01322 -0.04035 -0.06852
 H2046 H -0.00436 -0.03151 -0.05067
 H2047 H -0.03126 -0.00462 -0.05064
 H2048 H -0.04012 -0.01346 -0.06849
 C2049 C -0.04957 0.45005 0.38586
 C2050 C -0.05987 0.45466 0.38020
 C2051 C -0.06515 0.44939 0.36978
 C2052 C -0.06055 0.43903 0.36411
 C2053 C -0.05021 0.43443 0.36983
 C2054 C -0.04497 0.43972 0.38024
 C2055 C -0.04379 0.45586 0.39732
 N2056 N -0.03387 0.45127 0.40267
 N2057 N -0.02895 0.45622 0.41243
 C2058 C -0.03350 0.46620 0.41769
 N2059 N -0.04342 0.47079 0.41234
 N2060 N -0.04835 0.46584 0.40259
 C2061 C -0.02772 0.47202 0.42915
 C2062 C -0.03231 0.48237 0.43475
 C2063 C -0.02709 0.48761 0.44520
 C2064 C -0.01683 0.48296 0.45091
 C2065 C -0.01225 0.47259 0.44532
 C2066 C -0.01746 0.46736 0.43487
 H2067 H -0.06399 0.46250 0.38384
 H2068 H -0.07295 0.45364 0.36623
 H2069 H -0.04598 0.42660 0.36631
 H2070 H -0.03715 0.43559 0.38393
 H2071 H -0.04012 0.48652 0.43106
 H2072 H -0.03129 0.49539 0.44891
 H2073 H -0.00456 0.46833 0.44913
 H2074 H -0.01338 0.45947 0.43127
 C2075 C 0.45049 -0.04968 0.38645
 C2076 C 0.44021 -0.04503 0.38077
 C2077 C 0.43503 -0.05020 0.37027
 C2078 C 0.43970 -0.06047 0.36456
 C2079 C 0.44999 -0.06513 0.37025
 C2080 C 0.45516 -0.05994 0.38076
 C2081 C 0.45619 -0.04398 0.39800
 N2082 N 0.46610 -0.04859 0.40335
 N2083 N 0.47096 -0.04373 0.41319
 C2084 C 0.46633 -0.03383 0.41854
 N2085 N 0.45641 -0.02923 0.41320
 N2086 N 0.45156 -0.03409 0.40336
 C2087 C 0.47203 -0.02812 0.43008
 C2088 C 0.46734 -0.01786 0.43577
 C2089 C 0.47250 -0.01268 0.44627
 C2090 C 0.48280 -0.01730 0.45194
 C2091 C 0.48746 -0.02759 0.44628
 C2092 C 0.48230 -0.03277 0.43577
 H2093 H 0.43605 -0.03724 0.38448
 H2094 H 0.42723 -0.04599 0.36665
 H2095 H 0.45420 -0.07291 0.36662
 H2096 H 0.46297 -0.06409 0.38445
 H2097 H 0.45951 -0.01374 0.43210
 H2098 H 0.46826 -0.00495 0.45003
 H2099 H 0.49520 -0.03180 0.45004
 H2100 H 0.48645 -0.04058 0.43211
 C2101 C 0.44986 0.44976 -0.11342
 C2102 C 0.45450 0.43949 -0.11912
 C2103 C 0.44930 0.43427 -0.12958
 C2104 C 0.43896 0.43889 -0.13528
 C2105 C 0.43432 0.44919 -0.12953
 C2106 C 0.43956 0.45438 -0.11907
 C2107 C 0.45561 0.45548 -0.10191
 N2108 N 0.45101 0.46540 -0.09657
 N2109 N 0.45591 0.47028 -0.08676
 C2110 C 0.46584 0.46568 -0.08144
 N2111 N 0.47043 0.45576 -0.08679
 N2112 N 0.46553 0.45088 -0.09659
 C2113 C 0.47159 0.47142 -0.06994
 C2114 C 0.48187 0.46676 -0.06426
 C2115 C 0.48708 0.47196 -0.05379
 C2116 C 0.48247 0.48228 -0.04815
 C2117 C 0.47217 0.48691 -0.05380
 C2118 C 0.46696 0.48171 -0.06427
 H2119 H 0.46233 0.43536 -0.11545
 H2120 H 0.45356 0.42649 -0.13316
 H2121 H 0.42651 0.45344 -0.13306
 H2122 H 0.43541 0.46218 -0.11536
 H2123 H 0.48599 0.45891 -0.06792
 H2124 H 0.49483 0.46774 -0.05004
 H2125 H 0.46796 0.49467 -0.05006
 H2126 H 0.45912 0.48584 -0.06793
 C2127 C 0.45047 0.80022 0.36391
 C2128 C 0.44014 0.79563 0.36955
 C2129 C 0.43488 0.80090 0.37996
 C2130 C 0.43951 0.81121 0.38562
 C2131 C 0.44986 0.81581 0.37998
 C2132 C 0.45511 0.81053 0.36956
 C2133 C 0.45625 0.79442 0.35246
 N2134 N 0.46621 0.79897 0.34716
 N2135 N 0.47114 0.79402 0.33740
 C2136 C 0.46654 0.78409 0.33209
 N2137 N 0.45658 0.77954 0.33739
 N2138 N 0.45165 0.78449 0.34715
 C2139 C 0.47232 0.77828 0.32063
 C2140 C 0.46767 0.76799 0.31497
 C2141 C 0.47288 0.76276 0.30452
 C2142 C 0.48321 0.76735 0.29888
 C2143 C 0.48786 0.77765 0.30454
 C2144 C 0.48264 0.78288 0.31499
 H2145 H 0.43600 0.78781 0.36588
 H2146 H 0.42705 0.79673 0.38356
 H2147 H 0.45405 0.82361 0.38358
 H2148 H 0.46295 0.81464 0.36590
 H2149 H 0.45980 0.76390 0.31861
 H2150 H 0.46863 0.75504 0.30075
 H2151 H 0.49561 0.78186 0.30078
 H2152 H 0.48678 0.79072 0.31864
 C2153 C -0.04984 0.80060 0.86389
 C2154 C -0.06015 0.79600 0.86954
 C2155 C -0.06536 0.80119 0.88002
 C2156 C -0.06068 0.81147 0.88577
 C2157 C -0.05033 0.81607 0.88007
 C2158 C -0.04516 0.81085 0.86959
 C2159 C -0.04413 0.79487 0.85237
 N2160 N -0.03420 0.79944 0.84703
 N2161 N -0.02933 0.79455 0.83722
 C2162 C -0.03397 0.78465 0.83187
 N2163 N -0.04391 0.78008 0.83720
 N2164 N -0.04878 0.78497 0.84702
 C2165 C -0.02826 0.77891 0.82036
 C2166 C -0.03294 0.76863 0.81468
 C2167 C -0.02776 0.76342 0.80420
 C2168 C -0.01745 0.76803 0.79854
 C2169 C -0.01280 0.77833 0.80418
 C2170 C -0.01797 0.78354 0.81467
 H2171 H -0.06433 0.78822 0.86583
 H2172 H -0.07318 0.79697 0.88355
 H2173 H -0.04604 0.82383 0.88365
 H2174 H -0.03732 0.81496 0.86592
 H2175 H -0.04077 0.76452 0.81835
 H2176 H -0.03199 0.75569 0.80046
 H2177 H -0.00505 0.78253 0.80042
 H2178 H -0.01383 0.79137 0.81832
 C2179 C 0.38588 0.79983 0.29942
 C2180 C 0.38023 0.79524 0.30975
 C2181 C 0.36980 0.80049 0.31498
 C2182 C 0.36413 0.81079 0.31032
 C2183 C 0.36979 0.81538 0.29998
 C2184 C 0.38022 0.81012 0.29476
 C2185 C 0.39735 0.79405 0.29367
 N2186 N 0.40267 0.79861 0.28372
 N2187 N 0.41244 0.79367 0.27882
 C2188 C 0.41776 0.78375 0.28343
 N2189 N 0.41244 0.77919 0.29338
 N2190 N 0.40267 0.78412 0.29829
 C2191 C 0.42923 0.77797 0.27768
 C2192 C 0.43489 0.76768 0.28234
 C2193 C 0.44536 0.76247 0.27715
 C2194 C 0.45102 0.76709 0.26684
 C2195 C 0.44537 0.77739 0.26219
 C2196 C 0.43489 0.78259 0.26738
 H2197 H 0.38391 0.78744 0.31391
 H2198 H 0.36620 0.79634 0.32281
 H2199 H 0.36617 0.82318 0.29576
 H2200 H 0.38389 0.81422 0.28692
 H2201 H 0.43124 0.76357 0.29018
 H2202 H 0.44913 0.75475 0.28139
 H2203 H 0.44913 0.78161 0.25446
 H2204 H 0.43124 0.79043 0.26325
 C2205 C -0.11341 0.80067 0.80044
 C2206 C -0.11909 0.79604 0.81072
 C2207 C -0.12955 0.80127 0.81594
 C2208 C -0.13521 0.81159 0.81131
 C2209 C -0.12951 0.81622 0.80101
 C2210 C -0.11906 0.81098 0.79580
 C2211 C -0.10191 0.79491 0.79470
 N2212 N -0.09656 0.79951 0.78479
 N2213 N -0.08677 0.79460 0.77990
 C2214 C -0.08146 0.78465 0.78449
 N2215 N -0.08681 0.78006 0.79440
 N2216 N -0.09661 0.78497 0.79929
 C2217 C -0.06998 0.77889 0.77874
 C2218 C -0.06433 0.76857 0.78337
 C2219 C -0.05387 0.76335 0.77816
 C2220 C -0.04821 0.76798 0.76786
 C2221 C -0.05382 0.77831 0.76326
 C2222 C -0.06428 0.78354 0.76847
 H2223 H -0.11543 0.78822 0.81486
 H2224 H -0.13318 0.79708 0.82374
 H2225 H -0.13311 0.82403 0.79681
 H2226 H -0.11536 0.81512 0.78799
 H2227 H -0.06801 0.76444 0.79119
 H2228 H -0.05015 0.75558 0.78236
 H2229 H -0.05005 0.78254 0.75553
 H2230 H -0.06791 0.79140 0.76436
 C2231 C 0.86434 0.29909 0.45075
 C2232 C 0.87001 0.30936 0.45543
 C2233 C 0.88043 0.31465 0.45021
 C2234 C 0.88606 0.31011 0.43983
 C2235 C 0.88038 0.29982 0.43515
 C2236 C 0.86996 0.29455 0.44039
 C2237 C 0.85288 0.29327 0.45651
 N2238 N 0.84754 0.28338 0.45186
 N2239 N 0.83778 0.27842 0.45677
 C2240 C 0.83250 0.28292 0.46677
 N2241 N 0.83784 0.29281 0.47142
 N2242 N 0.84760 0.29777 0.46651
 C2243 C 0.82105 0.27711 0.47253
 C2244 C 0.81543 0.28165 0.48290
 C2245 C 0.80497 0.27642 0.48809
 C2246 C 0.79927 0.26617 0.48339
 C2247 C 0.80488 0.26163 0.47302
 C2248 C 0.81534 0.26686 0.46782
 H2249 H 0.86636 0.31343 0.46330
 H2250 H 0.88405 0.32243 0.45444
 H2251 H 0.88396 0.29570 0.42729
 H2252 H 0.86628 0.28675 0.43621
 H2253 H 0.81911 0.28945 0.48708
 H2254 H 0.80124 0.28059 0.49587
 H2255 H 0.80108 0.25395 0.46872
 H2256 H 0.81895 0.26281 0.45992
 C2257 C 0.86369 0.80032 -0.04995
 C2258 C 0.86935 0.79570 -0.06025
 C2259 C 0.87983 0.80089 -0.06545
 C2260 C 0.88554 0.81116 -0.06077
 C2261 C 0.87986 0.81579 -0.05045
 C2262 C 0.86939 0.81058 -0.04527
 C2263 C 0.85217 0.79459 -0.04423
 N2264 N 0.84684 0.79918 -0.03431
 N2265 N 0.83702 0.79430 -0.02943
 C2266 C 0.83168 0.78440 -0.03406
 N2267 N 0.83700 0.77981 -0.04399
 N2268 N 0.84682 0.78469 -0.04886
 C2269 C 0.82016 0.77866 -0.02834
 C2270 C 0.81448 0.76839 -0.03301
 C2271 C 0.80400 0.76319 -0.02783
 C2272 C 0.79835 0.76781 -0.01752
 C2273 C 0.80400 0.77811 -0.01287
 C2274 C 0.81448 0.78330 -0.01805
 H2275 H 0.86565 0.78791 -0.06442
 H2276 H 0.88344 0.79671 -0.07326
 H2277 H 0.88350 0.82356 -0.04623
 H2278 H 0.86571 0.81470 -0.03744
 H2279 H 0.81814 0.76427 -0.04085
 H2280 H 0.80024 0.75546 -0.03206
 H2281 H 0.80024 0.78232 -0.00513
 H2282 H 0.81815 0.79113 -0.01391
 C2283 C -0.11395 -0.04956 -0.04948
 C2284 C -0.11960 -0.05987 -0.04487
 C2285 C -0.13001 -0.06516 -0.05011
 C2286 C -0.13571 -0.06058 -0.06047
 C2287 C -0.13002 -0.05023 -0.06508
 C2288 C -0.11960 -0.04497 -0.05980
 C2289 C -0.10249 -0.04374 -0.04369
 N2290 N -0.09717 -0.03381 -0.04828
 N2291 N -0.08741 -0.02886 -0.04335
 C2292 C -0.08211 -0.03341 -0.03338
 N2293 N -0.08743 -0.04334 -0.02879
 N2294 N -0.09719 -0.04829 -0.03372
 C2295 C -0.07065 -0.02760 -0.02759
 C2296 C -0.06502 -0.03218 -0.01725
 C2297 C -0.05456 -0.02696 -0.01203
 C2298 C -0.04888 -0.01666 -0.01667
 C2299 C -0.05451 -0.01208 -0.02702
 C2300 C -0.06497 -0.01731 -0.03224
 H2301 H -0.11593 -0.06398 -0.03703
 H2302 H -0.13354 -0.07297 -0.04587
 H2303 H -0.13355 -0.04600 -0.07290
 H2304 H -0.11593 -0.03714 -0.06394
 H2305 H -0.06868 -0.04001 -0.01311
 H2306 H -0.05082 -0.03116 -0.00427
 H2307 H -0.05073 -0.00437 -0.03127
 H2308 H -0.06859 -0.01322 -0.04011
 C2309 C -0.11421 0.45036 0.45038
 C2310 C -0.11988 0.44009 0.45504
 C2311 C -0.13031 0.43481 0.44983
 C2312 C -0.13598 0.43937 0.43945
 C2313 C -0.13027 0.44968 0.43480
 C2314 C -0.11984 0.45493 0.44005
 C2315 C -0.10274 0.45615 0.45614
 N2316 N -0.09740 0.46605 0.45151
 N2317 N -0.08763 0.47099 0.45642
 C2318 C -0.08233 0.46645 0.46639
 N2319 N -0.08767 0.45654 0.47102
 N2320 N -0.09744 0.45161 0.46611
 C2321 C -0.07086 0.47224 0.47216
 C2322 C -0.06522 0.46764 0.48249
 C2323 C -0.05476 0.47286 0.48768
 C2324 C -0.04908 0.48313 0.48301
 C2325 C -0.05470 0.48772 0.47267
 C2326 C -0.06517 0.48250 0.46748
 H2327 H -0.11622 0.43600 0.46290
 H2328 H -0.13386 0.42703 0.45411
 H2329 H -0.13379 0.45389 0.42696
 H2330 H -0.11614 0.46273 0.43588
 H2331 H -0.06890 0.45983 0.48664
 H2332 H -0.05101 0.46866 0.49544
 H2333 H -0.05091 0.49542 0.46841
 H2334 H -0.06880 0.48659 0.45961
 C2335 C 0.38643 -0.04968 0.44984
 C2336 C 0.38074 -0.05998 0.45443
 C2337 C 0.37026 -0.06518 0.44921
 C2338 C 0.36453 -0.06051 0.43891
 C2339 C 0.37027 -0.05017 0.43433
 C2340 C 0.38075 -0.04500 0.43958
 C2341 C 0.39797 -0.04398 0.45561
 N2342 N 0.40333 -0.03404 0.45106
 N2343 N 0.41315 -0.02919 0.45597
 C2344 C 0.41848 -0.03384 0.46587
 N2345 N 0.41313 -0.04378 0.47042
 N2346 N 0.40331 -0.04863 0.46551
 C2347 C 0.43001 -0.02813 0.47165
 C2348 C 0.43570 -0.03283 0.48192
 C2349 C 0.44619 -0.02766 0.48715
 C2350 C 0.45186 -0.01733 0.48259
 C2351 C 0.44620 -0.01265 0.47230
 C2352 C 0.43572 -0.01782 0.46707
 H2353 H 0.38443 -0.06416 0.46222
 H2354 H 0.36670 -0.07299 0.45344
 H2355 H 0.36671 -0.04588 0.42655
 H2356 H 0.38444 -0.03718 0.43546
 H2357 H 0.43204 -0.04068 0.48601
 H2358 H 0.44993 -0.03192 0.49488
 H2359 H 0.44996 -0.00489 0.46812
 H2360 H 0.43206 -0.01365 0.45925
 C2361 C 0.38641 0.44980 -0.04986
 C2362 C 0.38073 0.43953 -0.04519
 C2363 C 0.37025 0.43430 -0.05036
 C2364 C 0.36453 0.43890 -0.06070
 C2365 C 0.37026 0.44920 -0.06536
 C2366 C 0.38074 0.45441 -0.06015
 C2367 C 0.39794 0.45554 -0.04415
 N2368 N 0.40327 0.46545 -0.04877
 N2369 N 0.41309 0.47035 -0.04390
 C2370 C 0.41844 0.46576 -0.03398
 N2371 N 0.41311 0.45584 -0.02936
 N2372 N 0.40329 0.45095 -0.03423
 C2373 C 0.42995 0.47151 -0.02826
 C2374 C 0.43566 0.46686 -0.01799
 C2375 C 0.44614 0.47207 -0.01281
 C2376 C 0.45178 0.48239 -0.01743
 C2377 C 0.44610 0.48702 -0.02772
 C2378 C 0.43561 0.48181 -0.03291
 H2379 H 0.38442 0.43541 -0.03737
 H2380 H 0.36669 0.42653 -0.04608
 H2381 H 0.36671 0.45344 -0.07316
 H2382 H 0.38443 0.46220 -0.06432
 H2383 H 0.43202 0.45902 -0.01386
 H2384 H 0.44992 0.46785 -0.00507
 H2385 H 0.44983 0.49477 -0.03194
 H2386 H 0.43194 0.48594 -0.04073
 C2387 C 0.36331 0.45008 0.80039
 C2388 C 0.36899 0.45473 0.81067
 C2389 C 0.37946 0.44952 0.81589
 C2390 C 0.38514 0.43922 0.81125
 C2391 C 0.37945 0.43457 0.80095
 C2392 C 0.36898 0.43979 0.79575
 C2393 C 0.35180 0.45582 0.79465
 N2394 N 0.34645 0.45121 0.78475
 N2395 N 0.33664 0.45610 0.77986
 C2396 C 0.33132 0.46603 0.78444
 N2397 N 0.33667 0.47064 0.79435
 N2398 N 0.34648 0.46575 0.79924
 C2399 C 0.31982 0.47177 0.77870
 C2400 C 0.31416 0.48208 0.78332
 C2401 C 0.30369 0.48729 0.77811
 C2402 C 0.29802 0.48263 0.76783
 C2403 C 0.30365 0.47230 0.76323
 C2404 C 0.31412 0.46710 0.76844
 H2405 H 0.36531 0.46254 0.81482
 H2406 H 0.38308 0.45372 0.82369
 H2407 H 0.38306 0.42677 0.79675
 H2408 H 0.36529 0.43565 0.78794
 H2409 H 0.31784 0.48623 0.79114
 H2410 H 0.29996 0.49505 0.78231
 H2411 H 0.29988 0.46807 0.75550
 H2412 H 0.31776 0.45925 0.76433
 C2413 C 0.36408 -0.04922 0.29934
 C2414 C 0.36971 -0.04465 0.30969
 C2415 C 0.38014 -0.04990 0.31493
 C2416 C 0.38583 -0.06019 0.31026
 C2417 C 0.38019 -0.06476 0.29990
 C2418 C 0.36976 -0.05949 0.29467
 C2419 C 0.35261 -0.04344 0.29358
 N2420 N 0.34732 -0.04798 0.28361
 N2421 N 0.33755 -0.04304 0.27870
 C2422 C 0.33220 -0.03314 0.28333
 N2423 N 0.33749 -0.02860 0.29330
 N2424 N 0.34727 -0.03354 0.29821
 C2425 C 0.32073 -0.02736 0.27756
 C2426 C 0.31504 -0.01710 0.28225
 C2427 C 0.30456 -0.01189 0.27706
 C2428 C 0.29894 -0.01647 0.26672
 C2429 C 0.30462 -0.02674 0.26204
 C2430 C 0.31510 -0.03195 0.26723
 H2431 H 0.36601 -0.03686 0.31386
 H2432 H 0.38372 -0.04576 0.32277
 H2433 H 0.38382 -0.07254 0.29567
 H2434 H 0.36611 -0.06359 0.28681
 H2435 H 0.31867 -0.01301 0.29012
 H2436 H 0.30077 -0.00419 0.28133
 H2437 H 0.30088 -0.03094 0.25429
 H2438 H 0.31877 -0.03976 0.26308
 C2439 C 0.13580 0.54952 0.70079
 C2440 C 0.13016 0.55984 0.70538
 C2441 C 0.11973 0.56510 0.70013
 C2442 C 0.11407 0.56046 0.68981
 C2443 C 0.11973 0.55012 0.68521
 C2444 C 0.13015 0.54488 0.69049
 C2445 C 0.14726 0.54374 0.70659
 N2446 N 0.15256 0.53377 0.70204
 N2447 N 0.16232 0.52885 0.70698
 C2448 C 0.16765 0.53346 0.71690
 N2449 N 0.16236 0.54343 0.72144
 N2450 N 0.15259 0.54836 0.71650
 C2451 C 0.17911 0.52769 0.72270
 C2452 C 0.18480 0.53237 0.73296
 C2453 C 0.19527 0.52717 0.73818
 C2454 C 0.20089 0.51682 0.73362
 C2455 C 0.19520 0.51214 0.72335
 C2456 C 0.18474 0.51734 0.71812
 H2457 H 0.13383 0.56399 0.71320
 H2458 H 0.11613 0.57293 0.70429
 H2459 H 0.11612 0.54592 0.67741
 H2460 H 0.13381 0.53704 0.68638
 H2461 H 0.18118 0.54025 0.73703
 H2462 H 0.19906 0.53144 0.74588
 H2463 H 0.19894 0.50437 0.71916
 H2464 H 0.18107 0.51318 0.71031
 C2465 C 0.13639 0.04969 0.19984
 C2466 C 0.13077 0.04503 0.18953
 C2467 C 0.12030 0.05018 0.18426
 C2468 C 0.11451 0.06048 0.18887
 C2469 C 0.12018 0.06513 0.19921
 C2470 C 0.13066 0.05995 0.20444
 C2471 C 0.14792 0.04401 0.20562
 N2472 N 0.15321 0.04866 0.21555
 N2473 N 0.16302 0.04382 0.22048
 C2474 C 0.16841 0.03390 0.21593
 N2475 N 0.16311 0.02925 0.20600
 N2476 N 0.15330 0.03409 0.20107
 C2477 C 0.17992 0.02821 0.22172
 C2478 C 0.18563 0.01791 0.21714
 C2479 C 0.19611 0.01276 0.22239
 C2480 C 0.20174 0.01744 0.23268
 C2481 C 0.19606 0.02776 0.23725
 C2482 C 0.18558 0.03292 0.23200
 H2483 H 0.13451 0.03723 0.18541
 H2484 H 0.11678 0.04591 0.17646
 H2485 H 0.11659 0.07291 0.20345
 H2486 H 0.13430 0.06411 0.21227
 H2487 H 0.18200 0.01374 0.20932
 H2488 H 0.19988 0.00500 0.21821
 H2489 H 0.19979 0.03203 0.24497
 H2490 H 0.18190 0.04077 0.23608
 C2491 C 0.61363 0.70068 0.20038
 C2492 C 0.61930 0.70534 0.19011
 C2493 C 0.62980 0.70017 0.18491
 C2494 C 0.63550 0.68988 0.18957
 C2495 C 0.62981 0.68522 0.19986
 C2496 C 0.61932 0.69041 0.20504
 C2497 C 0.60209 0.70639 0.20609
 N2498 N 0.59675 0.70178 0.21601
 N2499 N 0.58692 0.70664 0.22088
 C2500 C 0.58156 0.71654 0.21626
 N2501 N 0.58690 0.72115 0.20635
 N2502 N 0.59673 0.71629 0.20148
 C2503 C 0.57003 0.72225 0.22198
 C2504 C 0.56433 0.73251 0.21731
 C2505 C 0.55383 0.73769 0.22249
 C2506 C 0.54818 0.73306 0.23279
 C2507 C 0.55386 0.72277 0.23744
 C2508 C 0.56435 0.71760 0.23226
 H2509 H 0.61561 0.71314 0.18596
 H2510 H 0.63342 0.70438 0.17712
 H2511 H 0.63344 0.67743 0.20406
 H2512 H 0.61563 0.68626 0.21284
 H2513 H 0.56798 0.73664 0.20947
 H2514 H 0.55006 0.74542 0.21826
 H2515 H 0.55011 0.71855 0.24518
 H2516 H 0.56803 0.70978 0.23640
 C2517 C 0.11411 0.70117 0.70113
 C2518 C 0.11980 0.70582 0.69086
 C2519 C 0.13024 0.70059 0.68562
 C2520 C 0.13587 0.69025 0.69023
 C2521 C 0.13017 0.68559 0.70051
 C2522 C 0.11973 0.69084 0.70573
 C2523 C 0.10263 0.70693 0.70688
 N2524 N 0.09726 0.70231 0.71677
 N2525 N 0.08748 0.70723 0.72167
 C2526 C 0.08220 0.71720 0.71711
 N2527 N 0.08757 0.72182 0.70722
 N2528 N 0.09735 0.71690 0.70232
 C2529 C 0.07073 0.72296 0.72287
 C2530 C 0.06511 0.73330 0.71826
 C2531 C 0.05463 0.73849 0.72345
 C2532 C 0.04892 0.73380 0.73370
 C2533 C 0.05453 0.72346 0.73829
 C2534 C 0.06501 0.71827 0.73310
 H2535 H 0.11615 0.71367 0.68674
 H2536 H 0.13387 0.70480 0.67784
 H2537 H 0.13375 0.67776 0.70468
 H2538 H 0.11602 0.68668 0.71353
 H2539 H 0.06881 0.73746 0.71047
 H2540 H 0.05089 0.74626 0.71925
 H2541 H 0.05072 0.71919 0.74597
 H2542 H 0.06862 0.71039 0.73719
 C2543 C 0.63684 0.19999 0.55014
 C2544 C 0.63122 0.20464 0.56045
 C2545 C 0.62075 0.19947 0.56569
 C2546 C 0.61501 0.18921 0.56104
 C2547 C 0.62064 0.18455 0.55071
 C2548 C 0.63111 0.18973 0.54549
 C2549 C 0.64835 0.20568 0.54438
 N2550 N 0.65363 0.20106 0.53444
 N2551 N 0.66344 0.20591 0.52953
 C2552 C 0.66883 0.21581 0.53413
 N2553 N 0.66355 0.22042 0.54407
 N2554 N 0.65374 0.21557 0.54898
 C2555 C 0.68033 0.22150 0.52836
 C2556 C 0.68605 0.23176 0.53300
 C2557 C 0.69653 0.23693 0.52778
 C2558 C 0.70213 0.23228 0.51746
 C2559 C 0.69644 0.22200 0.51284
 C2560 C 0.68596 0.21684 0.51806
 H2561 H 0.63495 0.21243 0.56459
 H2562 H 0.61717 0.20367 0.57350
 H2563 H 0.61698 0.17678 0.54651
 H2564 H 0.63476 0.18559 0.53766
 H2565 H 0.68243 0.23590 0.54085
 H2566 H 0.70032 0.24466 0.53199
 H2567 H 0.70016 0.21777 0.50508
 H2568 H 0.68226 0.20901 0.51394
 C2569 C 0.63610 0.70087 0.04921
 C2570 C 0.63047 0.70546 0.05955
 C2571 C 0.62005 0.70022 0.06481
 C2572 C 0.61436 0.68991 0.06017
 C2573 C 0.62000 0.68532 0.04982
 C2574 C 0.63042 0.69058 0.04458
 C2575 C 0.64757 0.70665 0.04343
 N2576 N 0.65286 0.70210 0.03347
 N2577 N 0.66263 0.70703 0.02854
 C2578 C 0.66796 0.71695 0.03314
 N2579 N 0.66267 0.72150 0.04311
 N2580 N 0.65290 0.71657 0.04804
 C2581 C 0.67943 0.72274 0.02737
 C2582 C 0.68511 0.73302 0.03203
 C2583 C 0.69557 0.73824 0.02683
 C2584 C 0.70121 0.73364 0.01650
 C2585 C 0.69555 0.72336 0.01184
 C2586 C 0.68508 0.71814 0.01704
 H2587 H 0.63416 0.71327 0.06370
 H2588 H 0.61647 0.70438 0.07265
 H2589 H 0.61638 0.67752 0.04562
 H2590 H 0.63407 0.68647 0.03673
 H2591 H 0.68147 0.73711 0.03989
 H2592 H 0.69934 0.74595 0.03108
 H2593 H 0.69930 0.71915 0.00409
 H2594 H 0.68142 0.71031 0.01290
 C2595 C 0.11345 0.04991 0.05051
 C2596 C 0.11909 0.04525 0.06081
 C2597 C 0.12954 0.05043 0.06609
 C2598 C 0.13528 0.06077 0.06151
 C2599 C 0.12959 0.06541 0.05117
 C2600 C 0.11914 0.06020 0.04593
 C2601 C 0.10194 0.04418 0.04472
 N2602 N 0.09664 0.04881 0.03479
 N2603 N 0.08685 0.04394 0.02985
 C2604 C 0.08149 0.03400 0.03439
 N2605 N 0.08679 0.02937 0.04432
 N2606 N 0.09658 0.03425 0.04926
 C2607 C 0.07000 0.02827 0.02859
 C2608 C 0.06430 0.01797 0.03317
 C2609 C 0.05385 0.01277 0.02792
 C2610 C 0.04822 0.01742 0.01760
 C2611 C 0.05389 0.02775 0.01303
 C2612 C 0.06435 0.03295 0.01829
 H2613 H 0.11538 0.03743 0.06492
 H2614 H 0.13307 0.04616 0.07389
 H2615 H 0.13316 0.07322 0.04694
 H2616 H 0.11548 0.06436 0.03811
 H2617 H 0.06793 0.01381 0.04101
 H2618 H 0.05009 0.00501 0.03209
 H2619 H 0.05016 0.03200 0.00529
 H2620 H 0.06801 0.04080 0.01421
 C2621 C 0.11338 0.54978 0.54974
 C2622 C 0.11905 0.56008 0.54512
 C2623 C 0.12953 0.56529 0.55031
 C2624 C 0.13523 0.56062 0.56059
 C2625 C 0.12956 0.55030 0.56522
 C2626 C 0.11908 0.54512 0.56001
 C2627 C 0.10186 0.54406 0.54401
 N2628 N 0.09654 0.53413 0.54860
 N2629 N 0.08672 0.52925 0.54371
 C2630 C 0.08136 0.53388 0.53382
 N2631 N 0.08668 0.54382 0.52924
 N2632 N 0.09649 0.54870 0.53412
 C2633 C 0.06984 0.52815 0.52809
 C2634 C 0.06413 0.53284 0.51784
 C2635 C 0.05364 0.52765 0.51264
 C2636 C 0.04802 0.51731 0.51724
 C2637 C 0.05370 0.51265 0.52752
 C2638 C 0.06418 0.51784 0.53271
 H2639 H 0.11535 0.56425 0.53732
 H2640 H 0.13314 0.57310 0.54613
 H2641 H 0.13319 0.54609 0.57300
 H2642 H 0.11540 0.53729 0.56414
 H2643 H 0.06777 0.54069 0.51373
 H2644 H 0.04987 0.53189 0.50493
 H2645 H 0.04997 0.50489 0.53171
 H2646 H 0.06787 0.51369 0.54052
 C2647 C 0.61426 0.04969 0.54946
 C2648 C 0.61995 0.04509 0.55975
 C2649 C 0.63038 0.05035 0.56500
 C2650 C 0.63605 0.06071 0.56039
 C2651 C 0.63031 0.06531 0.55006
 C2652 C 0.61988 0.06002 0.54484
 C2653 C 0.60277 0.04387 0.54370
 N2654 N 0.59742 0.04843 0.53376
 N2655 N 0.58765 0.04348 0.52886
 C2656 C 0.58236 0.03353 0.53346
 N2657 N 0.58771 0.02897 0.54340
 N2658 N 0.59748 0.03392 0.54830
 C2659 C 0.57088 0.02771 0.52770
 C2660 C 0.56523 0.01741 0.53236
 C2661 C 0.55475 0.01218 0.52717
 C2662 C 0.54907 0.01677 0.51686
 C2663 C 0.55472 0.02708 0.51221
 C2664 C 0.56519 0.03231 0.51740
 H2665 H 0.61631 0.03725 0.56388
 H2666 H 0.63394 0.04610 0.57279
 H2667 H 0.63382 0.07313 0.54582
 H2668 H 0.61618 0.06414 0.53703
 H2669 H 0.56889 0.01331 0.54021
 H2670 H 0.55100 0.00445 0.53143
 H2671 H 0.55094 0.03129 0.50448
 H2672 H 0.56883 0.04015 0.51326
 C2673 C 0.61423 0.54929 0.04907
 C2674 C 0.61994 0.54465 0.05934
 C2675 C 0.63038 0.54990 0.06456
 C2676 C 0.63601 0.56024 0.05994
 C2677 C 0.63029 0.56489 0.04966
 C2678 C 0.61984 0.55963 0.04446
 C2679 C 0.60274 0.54352 0.04334
 N2680 N 0.59736 0.54813 0.03345
 N2681 N 0.58757 0.54320 0.02856
 C2682 C 0.58230 0.53323 0.03313
 N2683 N 0.58768 0.52862 0.04302
 N2684 N 0.59747 0.53355 0.04791
 C2685 C 0.57082 0.52745 0.02739
 C2686 C 0.56520 0.51711 0.03200
 C2687 C 0.55472 0.51191 0.02683
 C2688 C 0.54899 0.51658 0.01658
 C2689 C 0.55460 0.52692 0.01198
 C2690 C 0.56508 0.53213 0.01715
 H2691 H 0.61630 0.53681 0.06346
 H2692 H 0.63403 0.54569 0.07234
 H2693 H 0.63386 0.57272 0.04549
 H2694 H 0.61612 0.56378 0.03666
 H2695 H 0.56891 0.51296 0.03980
 H2696 H 0.55099 0.50415 0.03104
 H2697 H 0.55078 0.53119 0.00429
 H2698 H 0.56869 0.54000 0.01305
 C2699 C 0.05035 0.04953 0.11373
 C2700 C 0.04571 0.05979 0.11944
 C2701 C 0.05093 0.06500 0.12991
 C2702 C 0.06128 0.06038 0.13560
 C2703 C 0.06591 0.05009 0.12983
 C2704 C 0.06066 0.04491 0.11936
 C2705 C 0.04458 0.04382 0.10221
 N2706 N 0.04917 0.03391 0.09683
 N2707 N 0.04426 0.02905 0.08702
 C2708 C 0.03431 0.03365 0.08173
 N2709 N 0.02973 0.04356 0.08710
 N2710 N 0.03464 0.04842 0.09691
 C2711 C 0.02853 0.02794 0.07022
 C2712 C 0.01823 0.03260 0.06457
 C2713 C 0.01300 0.02742 0.05410
 C2714 C 0.01760 0.01712 0.04841
 C2715 C 0.02792 0.01248 0.05402
 C2716 C 0.03316 0.01766 0.06450
 H2717 H 0.03788 0.06393 0.11579
 H2718 H 0.04666 0.07277 0.13350
 H2719 H 0.07373 0.04584 0.13335
 H2720 H 0.06481 0.03711 0.11564
 H2721 H 0.01412 0.04043 0.06826
 H2722 H 0.00524 0.03165 0.05038
 H2723 H 0.03213 0.00474 0.05024
 H2724 H 0.04100 0.01352 0.06812
 C2725 C 0.04952 0.54974 0.61353
 C2726 C 0.04485 0.56003 0.61919
 C2727 C 0.05000 0.56525 0.62968
 C2728 C 0.06028 0.56061 0.63542
 C2729 C 0.06494 0.55031 0.62975
 C2730 C 0.05978 0.54510 0.61926
 C2731 C 0.04384 0.54400 0.60199
 N2732 N 0.04846 0.53408 0.59668
 N2733 N 0.04362 0.52919 0.58685
 C2734 C 0.03373 0.53379 0.58146
 N2735 N 0.02911 0.54371 0.58677
 N2736 N 0.03395 0.54861 0.59660
 C2737 C 0.02804 0.52804 0.56993
 C2738 C 0.01779 0.53270 0.56420
 C2739 C 0.01263 0.52750 0.55370
 C2740 C 0.01727 0.51718 0.54807
 C2741 C 0.02755 0.51255 0.55377
 C2742 C 0.03270 0.51775 0.56427
 H2743 H 0.03706 0.56418 0.61546
 H2744 H 0.04579 0.57305 0.63328
 H2745 H 0.07273 0.54611 0.63341
 H2746 H 0.06394 0.53729 0.61560
 H2747 H 0.01365 0.54054 0.56783
 H2748 H 0.00490 0.53172 0.54992
 H2749 H 0.03177 0.50480 0.55004
 H2750 H 0.04052 0.51362 0.56797
 C2751 C 0.54931 0.04971 0.61442
 C2752 C 0.54470 0.06004 0.62005
 C2753 C 0.54991 0.06532 0.63049
 C2754 C 0.56022 0.06069 0.63625
 C2755 C 0.56482 0.05033 0.63057
 C2756 C 0.55958 0.04509 0.62013
 C2757 C 0.54355 0.04392 0.60293
 N2758 N 0.54813 0.03396 0.59765
 N2759 N 0.54323 0.02903 0.58786
 C2760 C 0.53332 0.03362 0.58249
 N2761 N 0.52875 0.04358 0.58777
 N2762 N 0.53365 0.04852 0.59755
 C2763 C 0.52757 0.02782 0.57100
 C2764 C 0.51731 0.03247 0.56527
 C2765 C 0.51213 0.02724 0.55478
 C2766 C 0.51675 0.01690 0.54917
 C2767 C 0.52702 0.01227 0.55488
 C2768 C 0.53220 0.01750 0.56537
 H2769 H 0.53690 0.06419 0.61634
 H2770 H 0.54568 0.07314 0.63401
 H2771 H 0.57260 0.04607 0.63415
 H2772 H 0.56370 0.03724 0.61649
 H2773 H 0.51319 0.04033 0.56888
 H2774 H 0.50443 0.03148 0.55098
 H2775 H 0.53125 0.00452 0.55116
 H2776 H 0.54002 0.01336 0.56906
 C2777 C 0.54942 0.54948 0.11394
 C2778 C 0.54480 0.55981 0.11956
 C2779 C 0.55002 0.56510 0.12998
 C2780 C 0.56033 0.56048 0.13568
 C2781 C 0.56495 0.55014 0.13005
 C2782 C 0.55971 0.54487 0.11963
 C2783 C 0.54365 0.54368 0.10248
 N2784 N 0.54824 0.53372 0.09719
 N2785 N 0.54333 0.52877 0.08743
 C2786 C 0.53340 0.53334 0.08209
 N2787 N 0.52881 0.54329 0.08737
 N2788 N 0.53372 0.54824 0.09714
 C2789 C 0.52764 0.52753 0.07062
 C2790 C 0.51734 0.53215 0.06494
 C2791 C 0.51214 0.52692 0.05448
 C2792 C 0.51678 0.51660 0.04885
 C2793 C 0.52709 0.51200 0.05452
 C2794 C 0.53228 0.51723 0.06498
 H2795 H 0.53698 0.56394 0.11586
 H2796 H 0.54584 0.57293 0.13356
 H2797 H 0.57276 0.54595 0.13368
 H2798 H 0.56384 0.53703 0.11599
 H2799 H 0.51321 0.54000 0.06857
 H2800 H 0.50441 0.53114 0.05070
 H2801 H 0.53133 0.50426 0.05077
 H2802 H 0.54013 0.51312 0.06864
 C2803 C 0.20041 0.54948 0.63630
 C2804 C 0.19009 0.54488 0.63065
 C2805 C 0.18484 0.55012 0.62022
 C2806 C 0.18948 0.56043 0.61454
 C2807 C 0.19982 0.56503 0.62020
 C2808 C 0.20505 0.55977 0.63063
 C2809 C 0.20618 0.54370 0.64777
 N2810 N 0.21613 0.54827 0.65308
 N2811 N 0.22104 0.54335 0.66286
 C2812 C 0.21645 0.53342 0.66818
 N2813 N 0.20650 0.52885 0.66288
 N2814 N 0.20158 0.53378 0.65310
 C2815 C 0.22221 0.52764 0.67966
 C2816 C 0.21756 0.51735 0.68533
 C2817 C 0.22276 0.51215 0.69581
 C2818 C 0.23308 0.51676 0.70145
 C2819 C 0.23772 0.52706 0.69579
 C2820 C 0.23252 0.53226 0.68532
 H2821 H 0.18594 0.53706 0.63433
 H2822 H 0.17702 0.54595 0.61662
 H2823 H 0.20402 0.57283 0.61659
 H2824 H 0.21289 0.56389 0.63430
 H2825 H 0.20971 0.51324 0.68169
 H2826 H 0.21852 0.50442 0.69958
 H2827 H 0.24546 0.53128 0.69955
 H2828 H 0.23665 0.54010 0.68166
 C2829 C 0.19946 0.04980 0.13662
 C2830 C 0.20406 0.06010 0.13094
 C2831 C 0.19884 0.06533 0.12049
 C2832 C 0.18850 0.06070 0.11479
 C2833 C 0.18389 0.05037 0.12052
 C2834 C 0.18916 0.04517 0.13097
 C2835 C 0.20524 0.04407 0.14812
 N2836 N 0.20066 0.03414 0.15348
 N2837 N 0.20560 0.02926 0.16327
 C2838 C 0.21554 0.03386 0.16857
 N2839 N 0.22011 0.04379 0.16322
 N2840 N 0.21518 0.04867 0.15343
 C2841 C 0.22133 0.02812 0.18006
 C2842 C 0.23164 0.03277 0.18570
 C2843 C 0.23690 0.02758 0.19616
 C2844 C 0.23230 0.01727 0.20184
 C2845 C 0.22197 0.01264 0.19623
 C2846 C 0.21672 0.01783 0.18577
 H2847 H 0.21189 0.06424 0.13461
 H2848 H 0.20308 0.07312 0.11693
 H2849 H 0.17609 0.04611 0.11698
 H2850 H 0.18503 0.03735 0.13467
 H2851 H 0.23575 0.04061 0.18202
 H2852 H 0.24465 0.03180 0.19987
 H2853 H 0.21777 0.00489 0.20000
 H2854 H 0.20887 0.01370 0.18216
 C2855 C 0.70031 0.19983 0.61367
 C2856 C 0.70497 0.18956 0.61936
 C2857 C 0.69977 0.18434 0.62983
 C2858 C 0.68945 0.18897 0.63550
 C2859 C 0.68480 0.19926 0.62980
 C2860 C 0.69001 0.20446 0.61933
 C2861 C 0.70605 0.20556 0.60216
 N2862 N 0.70144 0.21547 0.59681
 N2863 N 0.70633 0.22036 0.58700
 C2864 C 0.71626 0.21576 0.58168
 N2865 N 0.72087 0.20585 0.58702
 N2866 N 0.71598 0.20096 0.59683
 C2867 C 0.72201 0.22150 0.57017
 C2868 C 0.73229 0.21684 0.56450
 C2869 C 0.73750 0.22204 0.55403
 C2870 C 0.73288 0.23235 0.54837
 C2871 C 0.72257 0.23698 0.55402
 C2872 C 0.71737 0.23178 0.56449
 H2873 H 0.71279 0.18542 0.61569
 H2874 H 0.70398 0.17656 0.63346
 H2875 H 0.67698 0.20344 0.63341
 H2876 H 0.68586 0.21226 0.61563
 H2877 H 0.73641 0.20901 0.56816
 H2878 H 0.74524 0.21781 0.55028
 H2879 H 0.71836 0.24472 0.55026
 H2880 H 0.70953 0.23591 0.56814
 C2881 C 0.70080 0.70114 0.11399
 C2882 C 0.70542 0.69083 0.11964
 C2883 C 0.70017 0.68556 0.13006
 C2884 C 0.68984 0.69017 0.13571
 C2885 C 0.68521 0.70049 0.13004
 C2886 C 0.69047 0.70574 0.11963
 C2887 C 0.70658 0.70692 0.10253
 N2888 N 0.70200 0.71687 0.09722
 N2889 N 0.70693 0.72180 0.08746
 C2890 C 0.71688 0.71723 0.08215
 N2891 N 0.72146 0.70728 0.08746
 N2892 N 0.71653 0.70235 0.09722
 C2893 C 0.72266 0.72301 0.07069
 C2894 C 0.73296 0.71838 0.06502
 C2895 C 0.73817 0.72359 0.05456
 C2896 C 0.73354 0.73391 0.04892
 C2897 C 0.72324 0.73854 0.05458
 C2898 C 0.71803 0.73332 0.06504
 H2899 H 0.71326 0.68671 0.11598
 H2900 H 0.70436 0.67775 0.13366
 H2901 H 0.67738 0.70466 0.13364
 H2902 H 0.68634 0.71356 0.11595
 H2903 H 0.73707 0.71053 0.06867
 H2904 H 0.74589 0.71936 0.05079
 H2905 H 0.71901 0.74627 0.05082
 H2906 H 0.71019 0.73744 0.06870
 C2907 C 0.54972 0.70062 0.13638
 C2908 C 0.55999 0.70527 0.13067
 C2909 C 0.56517 0.70007 0.12018
 C2910 C 0.56052 0.68977 0.11451
 C2911 C 0.55024 0.68512 0.12023
 C2912 C 0.54507 0.69033 0.13072
 C2913 C 0.54402 0.70635 0.14791
 N2914 N 0.53412 0.70174 0.15328
 N2915 N 0.52926 0.70662 0.16310
 C2916 C 0.53387 0.71655 0.16842
 N2917 N 0.54377 0.72116 0.16306
 N2918 N 0.54863 0.71627 0.15323
 C2919 C 0.52816 0.72228 0.17995
 C2920 C 0.53281 0.73257 0.18561
 C2921 C 0.52763 0.73776 0.19611
 C2922 C 0.51735 0.73312 0.20178
 C2923 C 0.51272 0.72280 0.19614
 C2924 C 0.51790 0.71761 0.18565
 H2925 H 0.56414 0.71308 0.13434
 H2926 H 0.57296 0.70427 0.11654
 H2927 H 0.54603 0.67731 0.11663
 H2928 H 0.53727 0.68618 0.13443
 H2929 H 0.54063 0.73671 0.18193
 H2930 H 0.53184 0.74551 0.19985
 H2931 H 0.50499 0.71857 0.19992
 H2932 H 0.51377 0.70977 0.18201
 C2933 C 0.04919 0.70087 0.63626
 C2934 C 0.05948 0.70548 0.63056
 C2935 C 0.06471 0.70021 0.62012
 C2936 C 0.06008 0.68987 0.61449
 C2937 C 0.04977 0.68526 0.62020
 C2938 C 0.04456 0.69055 0.63064
 C2939 C 0.04345 0.70668 0.64774
 N2940 N 0.03352 0.70212 0.65310
 N2941 N 0.02863 0.70707 0.66287
 C2942 C 0.03323 0.71702 0.66816
 N2943 N 0.04316 0.72158 0.66280
 N2944 N 0.04806 0.71663 0.65302
 C2945 C 0.02749 0.72283 0.67964
 C2946 C 0.03215 0.73313 0.68528
 C2947 C 0.02698 0.73836 0.69576
 C2948 C 0.01667 0.73376 0.70144
 C2949 C 0.01202 0.72345 0.69581
 C2950 C 0.01720 0.71822 0.68533
 H2951 H 0.06362 0.71332 0.63419
 H2952 H 0.07251 0.70439 0.61648
 H2953 H 0.04558 0.67744 0.61663
 H2954 H 0.03675 0.68642 0.63435
 H2955 H 0.04000 0.73723 0.68161
 H2956 H 0.03123 0.74609 0.69950
 H2957 H 0.00429 0.71924 0.69959
 H2958 H 0.01306 0.71038 0.68171
 C2959 C 0.54971 0.63680 0.20027
 C2960 C 0.56000 0.63113 0.20491
 C2961 C 0.56519 0.62063 0.19975
 C2962 C 0.56052 0.61490 0.18948
 C2963 C 0.55022 0.62058 0.18483
 C2964 C 0.54504 0.63108 0.19002
 C2965 C 0.54400 0.64835 0.20596
 N2966 N 0.53408 0.65368 0.20137
 N2967 N 0.52921 0.66351 0.20622
 C2968 C 0.53385 0.66889 0.21610
 N2969 N 0.54378 0.66356 0.22070
 N2970 N 0.54864 0.65373 0.21584
 C2971 C 0.52814 0.68043 0.22181
 C2972 C 0.53283 0.68616 0.23205
 C2973 C 0.52766 0.69666 0.23722
 C2974 C 0.51734 0.70230 0.23261
 C2975 C 0.51267 0.69660 0.22234
 C2976 C 0.51784 0.68609 0.21717
 H2977 H 0.56416 0.63485 0.21270
 H2978 H 0.57299 0.61702 0.20395
 H2979 H 0.54600 0.61694 0.17706
 H2980 H 0.53722 0.63476 0.18587
 H2981 H 0.54068 0.68251 0.23616
 H2982 H 0.53191 0.70044 0.24493
 H2983 H 0.50491 0.70034 0.21814
 H2984 H 0.51368 0.68240 0.20937
 C2985 C 0.04906 0.63635 0.70065
 C2986 C 0.05934 0.63067 0.70529
 C2987 C 0.06459 0.62023 0.70005
 C2988 C 0.05999 0.61458 0.68971
 C2989 C 0.04969 0.62028 0.68506
 C2990 C 0.04446 0.63071 0.69032
 C2991 C 0.04329 0.64783 0.70642
 N2992 N 0.03337 0.65317 0.70183
 N2993 N 0.02845 0.66295 0.70676
 C2994 C 0.03303 0.66825 0.71671
 N2995 N 0.04295 0.66291 0.72130
 N2996 N 0.04786 0.65313 0.71638
 C2997 C 0.02726 0.67973 0.72249
 C2998 C 0.03190 0.68537 0.73280
 C2999 C 0.02672 0.69585 0.73802
 C3000 C 0.01642 0.70153 0.73339
 C3001 C 0.01179 0.69590 0.72308
 C3002 C 0.01698 0.68542 0.71786
 H3003 H 0.06346 0.63432 0.71313
 H3004 H 0.07239 0.61661 0.70425
 H3005 H 0.04552 0.61669 0.67724
 H3006 H 0.03665 0.63440 0.68617
 H3007 H 0.03974 0.68170 0.73692
 H3008 H 0.03095 0.69959 0.74575
 H3009 H 0.00407 0.69968 0.71885
 H3010 H 0.01285 0.68179 0.71001
 C3011 C 0.04997 0.11331 0.05048
 C3012 C 0.06028 0.11895 0.04588
 C3013 C 0.06551 0.12942 0.05107
 C3014 C 0.06085 0.13517 0.06137
 C3015 C 0.05050 0.12948 0.06596
 C3016 C 0.04530 0.11901 0.06073
 C3017 C 0.04423 0.10179 0.04473
 N3018 N 0.03428 0.09647 0.04930
 N3019 N 0.02939 0.08667 0.04440
 C3020 C 0.03402 0.08131 0.03451
 N3021 N 0.04397 0.08663 0.02994
 N3022 N 0.04886 0.09643 0.03484
 C3023 C 0.02828 0.06980 0.02875
 C3024 C 0.03296 0.06411 0.01848
 C3025 C 0.02776 0.05364 0.01326
 C3026 C 0.01743 0.04800 0.01785
 C3027 C 0.01277 0.05366 0.02814
 C3028 C 0.01797 0.06414 0.03336
 H3029 H 0.06445 0.11524 0.03809
 H3030 H 0.07333 0.13295 0.04684
 H3031 H 0.04622 0.13306 0.07373
 H3032 H 0.03746 0.11535 0.06485
 H3033 H 0.04082 0.06776 0.01439
 H3034 H 0.03201 0.04989 0.00553
 H3035 H 0.00501 0.04992 0.03232
 H3036 H 0.01382 0.06780 0.04117
 C3037 C 0.04938 0.61358 0.54980
 C3038 C 0.04474 0.61928 0.56008
 C3039 C 0.04992 0.62978 0.56527
 C3040 C 0.06020 0.63548 0.56060
 C3041 C 0.06485 0.62978 0.55031
 C3042 C 0.05965 0.61928 0.54514
 C3043 C 0.04366 0.60203 0.54409
 N3044 N 0.04827 0.59668 0.53418
 N3045 N 0.04340 0.58685 0.52932
 C3046 C 0.03350 0.58149 0.53393
 N3047 N 0.02889 0.58684 0.54385
 N3048 N 0.03376 0.59668 0.54871
 C3049 C 0.02778 0.56995 0.52822
 C3050 C 0.01751 0.56425 0.53288
 C3051 C 0.01233 0.55374 0.52770
 C3052 C 0.01696 0.54808 0.51740
 C3053 C 0.02725 0.55375 0.51276
 C3054 C 0.03243 0.56426 0.51794
 H3055 H 0.03694 0.61558 0.56424
 H3056 H 0.04572 0.63340 0.57306
 H3057 H 0.07264 0.63340 0.54609
 H3058 H 0.06380 0.61558 0.53733
 H3059 H 0.01337 0.56791 0.54071
 H3060 H 0.00460 0.54998 0.53193
 H3061 H 0.03148 0.55000 0.50503
 H3062 H 0.04025 0.56792 0.51380
 C3063 C 0.54959 0.11383 0.54992
 C3064 C 0.54499 0.11948 0.56024
 C3065 C 0.55028 0.12986 0.56551
 C3066 C 0.56062 0.13548 0.56089
 C3067 C 0.56522 0.12982 0.55056
 C3068 C 0.55992 0.11943 0.54530
 C3069 C 0.54377 0.10241 0.54413
 N3070 N 0.54833 0.09709 0.53418
 N3071 N 0.54336 0.08736 0.52924
 C3072 C 0.53340 0.08209 0.53382
 N3073 N 0.52883 0.08740 0.54376
 N3074 N 0.53380 0.09714 0.54870
 C3075 C 0.52758 0.07067 0.52802
 C3076 C 0.51725 0.06505 0.53264
 C3077 C 0.51201 0.05461 0.52741
 C3078 C 0.51664 0.04897 0.51710
 C3079 C 0.52697 0.05458 0.51250
 C3080 C 0.53221 0.06501 0.51772
 H3081 H 0.53715 0.11583 0.56436
 H3082 H 0.54611 0.13348 0.57333
 H3083 H 0.57305 0.13340 0.54638
 H3084 H 0.56403 0.11575 0.53747
 H3085 H 0.51314 0.06870 0.54049
 H3086 H 0.50426 0.05087 0.53163
 H3087 H 0.53119 0.05081 0.50477
 H3088 H 0.54007 0.06864 0.51362
 C3089 C 0.54928 0.61402 0.04941
 C3090 C 0.54470 0.61968 0.05973
 C3091 C 0.54995 0.63011 0.06496
 C3092 C 0.56025 0.63579 0.06029
 C3093 C 0.56484 0.63012 0.04996
 C3094 C 0.55957 0.61968 0.04474
 C3095 C 0.54349 0.60254 0.04366
 N3096 N 0.54805 0.59721 0.03371
 N3097 N 0.54312 0.58743 0.02881
 C3098 C 0.53319 0.58211 0.03343
 N3099 N 0.52864 0.58744 0.04338
 N3100 N 0.53357 0.59722 0.04828
 C3101 C 0.52741 0.57063 0.02768
 C3102 C 0.51712 0.56496 0.03234
 C3103 C 0.51191 0.55448 0.02715
 C3104 C 0.51652 0.54882 0.01683
 C3105 C 0.52682 0.55449 0.01218
 C3106 C 0.53202 0.56496 0.01737
 H3107 H 0.53689 0.61600 0.06389
 H3108 H 0.54579 0.63372 0.07279
 H3109 H 0.57263 0.63373 0.04574
 H3110 H 0.56368 0.61601 0.03690
 H3111 H 0.51302 0.56861 0.04019
 H3112 H 0.50420 0.55071 0.03140
 H3113 H 0.53104 0.55072 0.00445
 H3114 H 0.53985 0.56862 0.01323
 C3115 C 0.70008 0.13606 0.54986
 C3116 C 0.68979 0.13041 0.54519
 C3117 C 0.68455 0.11992 0.55033
 C3118 C 0.68914 0.11414 0.56064
 C3119 C 0.69946 0.11985 0.56531
 C3120 C 0.70468 0.13034 0.56014
 C3121 C 0.70584 0.14761 0.54419
 N3122 N 0.71577 0.15291 0.54883
 N3123 N 0.72068 0.16273 0.54399
 C3124 C 0.71611 0.16813 0.53409
 N3125 N 0.70618 0.16283 0.52945
 N3126 N 0.70127 0.15300 0.53429
 C3127 C 0.72189 0.17966 0.52840
 C3128 C 0.71725 0.18541 0.51815
 C3129 C 0.72248 0.19590 0.51299
 C3130 C 0.73281 0.20152 0.51763
 C3131 C 0.73742 0.19580 0.52791
 C3132 C 0.73219 0.18530 0.53307
 H3133 H 0.68567 0.13413 0.53738
 H3134 H 0.67676 0.11638 0.54605
 H3135 H 0.70370 0.11626 0.57310
 H3136 H 0.71249 0.13400 0.56431
 H3137 H 0.70941 0.18179 0.51400
 H3138 H 0.71827 0.19970 0.50527
 H3139 H 0.74517 0.19951 0.53214
 H3140 H 0.73631 0.18160 0.54089
 C3141 C 0.70091 0.63625 0.04906
 C3142 C 0.69060 0.63060 0.04445
 C3143 C 0.68538 0.62014 0.04966
 C3144 C 0.69004 0.61444 0.05995
 C3145 C 0.70036 0.62011 0.06457
 C3146 C 0.70557 0.63057 0.05934
 C3147 C 0.70665 0.64776 0.04332
 N3148 N 0.71660 0.65308 0.04790
 N3149 N 0.72149 0.66288 0.04301
 C3150 C 0.71687 0.66823 0.03310
 N3151 N 0.70693 0.66292 0.02853
 N3152 N 0.70203 0.65312 0.03342
 C3153 C 0.72262 0.67974 0.02736
 C3154 C 0.71794 0.68546 0.01711
 C3155 C 0.72312 0.69596 0.01194
 C3156 C 0.73344 0.70160 0.01656
 C3157 C 0.73811 0.69589 0.02682
 C3158 C 0.73293 0.68539 0.03199
 H3159 H 0.68645 0.63430 0.03665
 H3160 H 0.67757 0.61653 0.04548
 H3161 H 0.70457 0.61648 0.07235
 H3162 H 0.71340 0.63424 0.06347
 H3163 H 0.71009 0.68182 0.01300
 H3164 H 0.71887 0.69976 0.00424
 H3165 H 0.74585 0.69964 0.03105
 H3166 H 0.73708 0.68170 0.03980
 C3167 C 0.20084 0.61433 0.70101
 C3168 C 0.20546 0.62000 0.69072
 C3169 C 0.20024 0.63046 0.68550
 C3170 C 0.18993 0.63612 0.69015
 C3171 C 0.18531 0.63044 0.70046
 C3172 C 0.19055 0.61999 0.70566
 C3173 C 0.20659 0.60284 0.70675
 N3174 N 0.20201 0.59750 0.71667
 N3175 N 0.20691 0.58771 0.72156
 C3176 C 0.21684 0.58239 0.71695
 N3177 N 0.22142 0.58772 0.70703
 N3178 N 0.21652 0.59751 0.70214
 C3179 C 0.22259 0.57089 0.72269
 C3180 C 0.23287 0.56521 0.71804
 C3181 C 0.23805 0.55472 0.72321
 C3182 C 0.23340 0.54906 0.73351
 C3183 C 0.22312 0.55473 0.73815
 C3184 C 0.21794 0.56522 0.73298
 H3185 H 0.21328 0.61632 0.68657
 H3186 H 0.20442 0.63408 0.67769
 H3187 H 0.17751 0.63405 0.70466
 H3188 H 0.18642 0.61630 0.71348
 H3189 H 0.23699 0.56887 0.71020
 H3190 H 0.24576 0.55094 0.71897
 H3191 H 0.21888 0.55096 0.74588
 H3192 H 0.21011 0.56888 0.73711
 C3193 C 0.20027 0.11347 0.19979
 C3194 C 0.19001 0.11918 0.20444
 C3195 C 0.18481 0.12966 0.19925
 C3196 C 0.18943 0.13535 0.18891
 C3197 C 0.19973 0.12960 0.18426
 C3198 C 0.20490 0.11912 0.18949
 C3199 C 0.20597 0.10195 0.20553
 N3200 N 0.21588 0.09659 0.20093
 N3201 N 0.22074 0.08677 0.20583
 C3202 C 0.21613 0.08145 0.21575
 N3203 N 0.20622 0.08682 0.22035
 N3204 N 0.20136 0.09663 0.21545
 C3205 C 0.22184 0.06994 0.22150
 C3206 C 0.21715 0.06427 0.23178
 C3207 C 0.22232 0.05379 0.23699
 C3208 C 0.23264 0.04812 0.23239
 C3209 C 0.23730 0.05376 0.22209
 C3210 C 0.23212 0.06425 0.21688
 H3211 H 0.18588 0.11552 0.21227
 H3212 H 0.17704 0.13324 0.20352
 H3213 H 0.20398 0.13313 0.17645
 H3214 H 0.21269 0.11540 0.18533
 H3215 H 0.20931 0.06794 0.23588
 H3216 H 0.21808 0.05004 0.24473
 H3217 H 0.24505 0.05000 0.21790
 H3218 H 0.23628 0.06790 0.20905
 C3219 C 0.70048 1.11398 0.70048
 C3220 C 0.70506 1.11962 0.69016
 C3221 C 0.69979 1.13002 0.68488
 C3222 C 0.68944 1.13570 0.68949
 C3223 C 0.68486 1.13001 0.69986
 C3224 C 0.69017 1.11961 0.70511
 C3225 C 0.70630 1.10254 0.70628
 N3226 N 0.70176 1.09726 0.71625
 N3227 N 0.70672 1.08751 0.72119
 C3228 C 0.71665 1.08220 0.71659
 N3229 N 0.72119 1.08748 0.70661
 N3230 N 0.71623 1.09723 0.70167
 C3231 C 0.72247 1.07076 0.72239
 C3232 C 0.73274 1.06507 0.71772
 C3233 C 0.73798 1.05463 0.72294
 C3234 C 0.73341 1.04902 0.73330
 C3235 C 0.72313 1.05470 0.73796
 C3236 C 0.71789 1.06514 0.73274
 H3237 H 0.71289 1.11596 0.68602
 H3238 H 0.70401 1.13355 0.67706
 H3239 H 0.67705 1.13354 0.70410
 H3240 H 0.68606 1.11595 0.71295
 H3241 H 0.73681 1.06869 0.70983
 H3242 H 0.74568 1.05084 0.71868
 H3243 H 0.71894 1.05097 0.74573
 H3244 H 0.71008 1.06881 0.73688
 C3245 C 0.70078 0.61424 0.20061
 C3246 C 0.69046 0.61987 0.20523
 C3247 C 0.68519 0.63030 0.20001
 C3248 C 0.68982 0.63600 0.18971
 C3249 C 0.70016 0.63036 0.18509
 C3250 C 0.70541 0.61993 0.19032
 C3251 C 0.70656 0.60276 0.20636
 N3252 N 0.71651 0.59747 0.20177
 N3253 N 0.72144 0.58769 0.20668
 C3254 C 0.71685 0.58235 0.21660
 N3255 N 0.70691 0.58764 0.22119
 N3256 N 0.70198 0.59742 0.21629
 C3257 C 0.72264 0.57087 0.22236
 C3258 C 0.71800 0.56519 0.23265
 C3259 C 0.72321 0.55472 0.23784
 C3260 C 0.73352 0.54907 0.23320
 C3261 C 0.73815 0.55474 0.22290
 C3262 C 0.73293 0.56522 0.21771
 H3263 H 0.68632 0.61617 0.21304
 H3264 H 0.67737 0.63389 0.20419
 H3265 H 0.70435 0.63399 0.17729
 H3266 H 0.71324 0.61627 0.18619
 H3267 H 0.71016 0.56884 0.23677
 H3268 H 0.71899 0.55094 0.24556
 H3269 H 0.74588 0.55099 0.21866
 H3270 H 0.73705 0.56888 0.20987
 C3271 C 0.54957 0.13598 0.70027
 C3272 C 0.55984 0.13026 0.70489
 C3273 C 0.56504 0.11978 0.69968
 C3274 C 0.56039 0.11407 0.68936
 C3275 C 0.55008 0.11983 0.68474
 C3276 C 0.54492 0.13032 0.68998
 C3277 C 0.54388 0.14752 0.70603
 N3278 N 0.53397 0.15290 0.70144
 N3279 N 0.52912 0.16272 0.70635
 C3280 C 0.53375 0.16803 0.71627
 N3281 N 0.54366 0.16265 0.72086
 N3282 N 0.54851 0.15283 0.71595
 C3283 C 0.52805 0.17956 0.72204
 C3284 C 0.53273 0.18521 0.73233
 C3285 C 0.52757 0.19571 0.73756
 C3286 C 0.51727 0.20141 0.73296
 C3287 C 0.51262 0.19578 0.72264
 C3288 C 0.51778 0.18529 0.71742
 H3289 H 0.56401 0.13393 0.71270
 H3290 H 0.57282 0.11620 0.70394
 H3291 H 0.54581 0.11630 0.67695
 H3292 H 0.53711 0.13403 0.68585
 H3293 H 0.54055 0.18153 0.73645
 H3294 H 0.53181 0.19943 0.74530
 H3295 H 0.50488 0.19956 0.71844
 H3296 H 0.51363 0.18166 0.70958
 C3297 C 1.04977 0.13569 0.20024
 C3298 C 1.04516 0.13003 0.18993
 C3299 C 1.05043 0.11962 0.18465
 C3300 C 1.06077 0.11398 0.18926
 C3301 C 1.06538 0.11965 0.19959
 C3302 C 1.06010 0.13006 0.20484
 C3303 C 1.04397 0.14714 0.20603
 N3304 N 1.04855 0.15245 0.21597
 N3305 N 1.04361 0.16221 0.22091
 C3306 C 1.03365 0.16750 0.21635
 N3307 N 1.02907 0.16219 0.20641
 N3308 N 1.03401 0.15243 0.20147
 C3309 C 1.02785 0.17895 0.22215
 C3310 C 1.01753 0.18460 0.21754
 C3311 C 1.01230 0.19505 0.22277
 C3312 C 1.01693 0.20070 0.23307
 C3313 C 1.02726 0.19506 0.23767
 C3314 C 1.03249 0.18461 0.23245
 H3315 H 1.03733 0.13369 0.18580
 H3316 H 1.04625 0.11602 0.17684
 H3317 H 1.07321 0.11606 0.20377
 H3318 H 1.06423 0.13373 0.21267
 H3319 H 1.01340 0.18095 0.20970
 H3320 H 1.00456 0.19880 0.21855
 H3321 H 1.03150 0.19882 0.24540
 H3322 H 1.04034 0.18098 0.23655
 C3323 C 0.20045 0.63632 0.54956
 C3324 C 0.20508 0.63064 0.55985
 C3325 C 0.19984 0.62021 0.56509
 C3326 C 0.18950 0.61456 0.56047
 C3327 C 0.18487 0.62025 0.55017
 C3328 C 0.19012 0.63069 0.54494
 C3329 C 0.20622 0.64780 0.54379
 N3330 N 0.20163 0.65314 0.53387
 N3331 N 0.20655 0.66292 0.52896
 C3332 C 0.21650 0.66822 0.53354
 N3333 N 0.22110 0.66288 0.54346
 N3334 N 0.21617 0.65310 0.54837
 C3335 C 0.22228 0.67970 0.52778
 C3336 C 0.23259 0.68535 0.53241
 C3337 C 0.23779 0.69583 0.52721
 C3338 C 0.23316 0.70150 0.51692
 C3339 C 0.22284 0.69586 0.51230
 C3340 C 0.21764 0.68539 0.51749
 H3341 H 0.21292 0.63430 0.56397
 H3342 H 0.20403 0.61658 0.57289
 H3343 H 0.17704 0.61666 0.54599
 H3344 H 0.18598 0.63438 0.53713
 H3345 H 0.23671 0.68169 0.54024
 H3346 H 0.24553 0.69958 0.53144
 H3347 H 0.21861 0.69964 0.50458
 H3348 H 0.20979 0.68175 0.51338
 C3349 C 0.19980 0.13630 1.05046
 C3350 C 0.20440 0.13062 1.06076
 C3351 C 0.19916 0.12017 1.06598
 C3352 C 0.18885 0.11451 1.06133
 C3353 C 0.18424 0.12020 1.05101
 C3354 C 0.18950 0.13065 1.04581
 C3355 C 0.20558 0.14780 1.04472
 N3356 N 0.20101 0.15314 1.03479
 N3357 N 0.20594 0.16293 1.02990
 C3358 C 0.21587 0.16824 1.03451
 N3359 N 0.22043 0.16290 1.04444
 N3360 N 0.21551 0.15311 1.04933
 C3361 C 0.22165 0.17972 1.02876
 C3362 C 0.23195 0.18538 1.03341
 C3363 C 0.23719 0.19584 1.02821
 C3364 C 0.23259 0.20149 1.01788
 C3365 C 0.22228 0.19586 1.01325
 C3366 C 0.21704 0.18540 1.01846
 H3367 H 0.21222 0.13428 1.06491
 H3368 H 0.20334 0.11654 1.07379
 H3369 H 0.17644 0.11660 1.04681
 H3370 H 0.18538 0.13434 1.03799
 H3371 H 0.23605 0.18173 1.04126
 H3372 H 0.24494 0.19958 1.03243
 H3373 H 0.21808 0.19961 1.00550
 H3374 H 0.20920 0.18176 1.01433
 C3375 C 0.20075 0.70120 0.61436
 C3376 C 0.19048 0.70585 0.62006
 C3377 C 0.18526 0.70061 0.63050
 C3378 C 0.18989 0.69027 0.63613
 C3379 C 0.20017 0.68562 0.63041
 C3380 C 0.20537 0.69088 0.61997
 C3381 C 0.20648 0.70697 0.60287
 N3382 N 0.21637 0.70236 0.59750
 N3383 N 0.22126 0.70728 0.58771
 C3384 C 0.21669 0.71724 0.58244
 N3385 N 0.20679 0.72185 0.58781
 N3386 N 0.20190 0.71693 0.59760
 C3387 C 0.22242 0.72301 0.57095
 C3388 C 0.21780 0.73334 0.56533
 C3389 C 0.22298 0.73853 0.55484
 C3390 C 0.23322 0.73385 0.54913
 C3391 C 0.23783 0.72351 0.55474
 C3392 C 0.23266 0.71832 0.56523
 H3393 H 0.18636 0.71369 0.61641
 H3394 H 0.17748 0.70482 0.63415
 H3395 H 0.20435 0.67779 0.63399
 H3396 H 0.21317 0.68673 0.61625
 H3397 H 0.21000 0.73749 0.56903
 H3398 H 0.21877 0.74629 0.55111
 H3399 H 0.24552 0.71924 0.55093
 H3400 H 0.23676 0.71045 0.56884
 C3401 C 0.20024 0.19956 1.11390
 C3402 C 0.20487 0.18924 1.11951
 C3403 C 0.19971 0.18399 1.12998
 C3404 C 0.18942 0.18863 1.13575
 C3405 C 0.18479 0.19898 1.13009
 C3406 C 0.18999 0.20420 1.11962
 C3407 C 0.20594 0.20533 1.10238
 N3408 N 0.20132 0.21527 1.09710
 N3409 N 0.20618 0.22019 1.08729
 C3410 C 0.21608 0.21560 1.08191
 N3411 N 0.22069 0.20566 1.08719
 N3412 N 0.21583 0.20074 1.09700
 C3413 C 0.22178 0.22138 1.07041
 C3414 C 0.23206 0.21675 1.06469
 C3415 C 0.23723 0.22199 1.05422
 C3416 C 0.23258 0.23231 1.04861
 C3417 C 0.22228 0.23691 1.05430
 C3418 C 0.21711 0.23168 1.06477
 H3419 H 0.21266 0.18510 1.11577
 H3420 H 0.20396 0.17617 1.13349
 H3421 H 0.17703 0.20324 1.13369
 H3422 H 0.18585 0.21204 1.11598
 H3423 H 0.23620 0.20891 1.06831
 H3424 H 0.24496 0.21778 1.05043
 H3425 H 0.21805 0.24466 1.05058
 H3426 H 0.20929 0.23579 1.06846
 C3427 C 0.70103 0.54934 0.13575
 C3428 C 0.69073 0.54471 0.13009
 C3429 C 0.68549 0.54995 0.11965
 C3430 C 0.69013 0.56026 0.11398
 C3431 C 0.70044 0.56489 0.11966
 C3432 C 0.70566 0.55964 0.13010
 C3433 C 0.70679 0.54357 0.14723
 N3434 N 0.71672 0.54815 0.15256
 N3435 N 0.72163 0.54323 0.16235
 C3436 C 0.71703 0.53329 0.16766
 N3437 N 0.70710 0.52872 0.16234
 N3438 N 0.70219 0.53363 0.15255
 C3439 C 0.72279 0.52753 0.17914
 C3440 C 0.71813 0.51724 0.18481
 C3441 C 0.72332 0.51204 0.19530
 C3442 C 0.73362 0.51667 0.20096
 C3443 C 0.73827 0.52696 0.19530
 C3444 C 0.73308 0.53216 0.18482
 H3445 H 0.68659 0.53689 0.13376
 H3446 H 0.67768 0.54576 0.11604
 H3447 H 0.70463 0.57270 0.11605
 H3448 H 0.71349 0.56377 0.13378
 H3449 H 0.71029 0.51312 0.18116
 H3450 H 0.71907 0.50432 0.19907
 H3451 H 0.74599 0.53119 0.19907
 H3452 H 0.73721 0.53999 0.18116
 C3453 C 0.70042 1.04949 0.63599
 C3454 C 0.69013 1.04486 0.63032
 C3455 C 0.68488 1.05010 0.61988
 C3456 C 0.68951 1.06044 0.61422
 C3457 C 0.69982 1.06506 0.61991
 C3458 C 0.70504 1.05980 0.63035
 C3459 C 0.70619 1.04371 0.64748
 N3460 N 0.71612 1.04829 0.65281
 N3461 N 0.72103 1.04336 0.66259
 C3462 C 0.71644 1.03342 0.66791
 N3463 N 0.70651 1.02884 0.66258
 N3464 N 0.70160 1.03377 0.65279
 C3465 C 0.72221 1.02764 0.67939
 C3466 C 0.71757 1.01735 0.68506
 C3467 C 0.72276 1.01215 0.69554
 C3468 C 0.73307 1.01677 0.70120
 C3469 C 0.73771 1.02707 0.69554
 C3470 C 0.73251 1.03227 0.68506
 H3471 H 0.68599 1.03703 0.63398
 H3472 H 0.67708 1.04592 0.61626
 H3473 H 0.70400 1.07288 0.61632
 H3474 H 0.71286 1.06394 0.63404
 H3475 H 0.70972 1.01323 0.68141
 H3476 H 0.71853 1.00442 0.69931
 H3477 H 0.74544 1.03129 0.69930
 H3478 H 0.73664 1.04011 0.68141
 C3479 C 0.55010 0.20009 0.63701
 C3480 C 0.56040 0.20473 0.63137
 C3481 C 0.56562 0.19955 0.62090
 C3482 C 0.56096 0.18927 0.61519
 C3483 C 0.55064 0.18463 0.62085
 C3484 C 0.54544 0.18983 0.63132
 C3485 C 0.54437 0.20580 0.64853
 N3486 N 0.53444 0.20119 0.65384
 N3487 N 0.52955 0.20605 0.66365
 C3488 C 0.53415 0.21596 0.66901
 N3489 N 0.54408 0.22057 0.66370
 N3490 N 0.54897 0.21570 0.65389
 C3491 C 0.52841 0.22167 0.68051
 C3492 C 0.53306 0.23194 0.68621
 C3493 C 0.52785 0.23712 0.69668
 C3494 C 0.51755 0.23248 0.70232
 C3495 C 0.51292 0.22218 0.69665
 C3496 C 0.51812 0.21700 0.68617
 H3497 H 0.56456 0.21253 0.63508
 H3498 H 0.57343 0.20374 0.61730
 H3499 H 0.54643 0.17685 0.61720
 H3500 H 0.53762 0.18569 0.63498
 H3501 H 0.54090 0.23608 0.68256
 H3502 H 0.53207 0.24486 0.70045
 H3503 H 0.50517 0.21796 0.70039
 H3504 H 0.51400 0.20917 0.68250
 C3505 C 1.04976 0.19969 0.13609
 C3506 C 1.04513 0.18937 0.13048
 C3507 C 1.05037 0.18405 0.12007
 C3508 C 1.06072 0.18862 0.11435
 C3509 C 1.06534 0.19898 0.12002
 C3510 C 1.06008 0.20426 0.13043
 C3511 C 1.04399 0.20552 0.14754
 N3512 N 1.04858 0.21548 0.15281
 N3513 N 1.04367 0.22046 0.16257
 C3514 C 1.03372 0.21591 0.16791
 N3515 N 1.02913 0.20595 0.16264
 N3516 N 1.03405 0.20097 0.15288
 C3517 C 1.02795 0.22175 0.17936
 C3518 C 1.01766 0.21715 0.18505
 C3519 C 1.01246 0.22241 0.19550
 C3520 C 1.01709 0.23274 0.20110
 C3521 C 1.02739 0.23734 0.19541
 C3522 C 1.03259 0.23207 0.18497
 H3523 H 1.03730 0.18527 0.13416
 H3524 H 1.04611 0.17624 0.11655
 H3525 H 1.07315 0.20320 0.11647
 H3526 H 1.06422 0.21210 0.13407
 H3527 H 1.01353 0.20929 0.18145
 H3528 H 1.00473 0.21820 0.19929
 H3529 H 1.03163 0.24509 0.19914
 H3530 H 1.04043 0.23617 0.18129
 C3531 C 0.61351 0.19969 0.70051
 C3532 C 0.61915 0.20433 0.69021
 C3533 C 0.62962 0.19916 0.68498
 C3534 C 0.63535 0.18889 0.68963
 C3535 C 0.62970 0.18424 0.69995
 C3536 C 0.61923 0.18944 0.70517
 C3537 C 0.60199 0.20540 0.70626
 N3538 N 0.59668 0.20080 0.71620
 N3539 N 0.58687 0.20566 0.72110
 C3540 C 0.58149 0.21556 0.71649
 N3541 N 0.58680 0.22016 0.70655
 N3542 N 0.59661 0.21529 0.70165
 C3543 C 0.56998 0.22127 0.72224
 C3544 C 0.56427 0.23154 0.71758
 C3545 C 0.55379 0.23672 0.72279
 C3546 C 0.54817 0.23210 0.73311
 C3547 C 0.55385 0.22181 0.73775
 C3548 C 0.56433 0.21663 0.73254
 H3549 H 0.61542 0.21212 0.68605
 H3550 H 0.63321 0.20335 0.67716
 H3551 H 0.63336 0.17647 0.70416
 H3552 H 0.61557 0.18529 0.71299
 H3553 H 0.56791 0.23566 0.70974
 H3554 H 0.55002 0.24445 0.71857
 H3555 H 0.55011 0.21760 0.74550
 H3556 H 0.56801 0.20881 0.73667
 C3557 C 1.11425 0.20009 0.20048
 C3558 C 1.11989 0.18977 0.20509
 C3559 C 1.13029 0.18448 0.19982
 C3560 C 1.13593 0.18909 0.18948
 C3561 C 1.13028 0.19943 0.18487
 C3562 C 1.11988 0.20469 0.19015
 C3563 C 1.10282 0.20590 0.20629
 N3564 N 1.09752 0.21584 0.20171
 N3565 N 1.08777 0.22079 0.20666
 C3566 C 1.08248 0.21623 0.21662
 N3567 N 1.08778 0.20628 0.22119
 N3568 N 1.09753 0.20133 0.21624
 C3569 C 1.07105 0.22204 0.22242
 C3570 C 1.06541 0.21742 0.23274
 C3571 C 1.05497 0.22265 0.23797
 C3572 C 1.04932 0.23296 0.23335
 C3573 C 1.05495 0.23757 0.22302
 C3574 C 1.06539 0.23234 0.21779
 H3575 H 1.11623 0.18565 0.21293
 H3576 H 1.13389 0.17666 0.20399
 H3577 H 1.13387 0.20360 0.17704
 H3578 H 1.11622 0.21253 0.18603
 H3579 H 1.06906 0.20958 0.23686
 H3580 H 1.05121 0.21843 0.24572
 H3581 H 1.05118 0.24530 0.21879
 H3582 H 1.06903 0.23644 0.20993
 C3583 C 0.13583 0.70084 0.54938
 C3584 C 0.13014 0.70547 0.55966
 C3585 C 0.11972 0.70022 0.56492
 C3586 C 0.11409 0.68986 0.56033
 C3587 C 0.11979 0.68522 0.55003
 C3588 C 0.13021 0.69050 0.54478
 C3589 C 0.14729 0.70664 0.54360
 N3590 N 0.15265 0.70205 0.53368
 N3591 N 0.16241 0.70700 0.52876
 C3592 C 0.16769 0.71697 0.53332
 N3593 N 0.16234 0.72156 0.54324
 N3594 N 0.15257 0.71662 0.54816
 C3595 C 0.17915 0.72277 0.52754
 C3596 C 0.18478 0.73310 0.53215
 C3597 C 0.19525 0.73832 0.52695
 C3598 C 0.20094 0.73368 0.51667
 C3599 C 0.19532 0.72334 0.51206
 C3600 C 0.18485 0.71812 0.51727
 H3601 H 0.13378 0.71333 0.56378
 H3602 H 0.11609 0.70441 0.57272
 H3603 H 0.11621 0.67739 0.54586
 H3604 H 0.13391 0.68636 0.53698
 H3605 H 0.18111 0.73723 0.53998
 H3606 H 0.19899 0.74607 0.53117
 H3607 H 0.19911 0.71910 0.50435
 H3608 H 0.18123 0.71026 0.51316
 C3609 C 0.13654 0.19950 1.05024
 C3610 C 0.13087 0.20413 1.06053
 C3611 C 0.12039 0.19893 1.06574
 C3612 C 0.11470 0.18864 1.06108
 C3613 C 0.12039 0.18400 1.05078
 C3614 C 0.13086 0.18922 1.04559
 C3615 C 0.14807 0.20524 1.04452
 N3616 N 0.15339 0.20066 1.03459
 N3617 N 0.16321 0.20555 1.02971
 C3618 C 0.16856 0.21545 1.03434
 N3619 N 0.16323 0.22003 1.04428
 N3620 N 0.15342 0.21514 1.04915
 C3621 C 0.18007 0.22120 1.02862
 C3622 C 0.18577 0.23145 1.03331
 C3623 C 0.19625 0.23666 1.02813
 C3624 C 0.20188 0.23209 1.01779
 C3625 C 0.19621 0.22181 1.01311
 C3626 C 0.18573 0.21660 1.01830
 H3627 H 0.13456 0.21194 1.06469
 H3628 H 0.11677 0.20312 1.07354
 H3629 H 0.11676 0.17621 1.04657
 H3630 H 0.13455 0.18508 1.03777
 H3631 H 0.18213 0.23555 1.04117
 H3632 H 0.20002 0.24438 1.03238
 H3633 H 0.19995 0.21763 1.00534
 H3634 H 0.18206 0.20879 1.01414
 C3635 C 0.63613 0.54964 0.20077
 C3636 C 0.63044 0.54497 0.19050
 C3637 C 0.62002 0.55021 0.18523
 C3638 C 0.61439 0.56057 0.18980
 C3639 C 0.62009 0.56525 0.20008
 C3640 C 0.63052 0.55999 0.20533
 C3641 C 0.64760 0.54386 0.20655
 N3642 N 0.65295 0.54849 0.21645
 N3643 N 0.66272 0.54357 0.22138
 C3644 C 0.66799 0.53358 0.21685
 N3645 N 0.66264 0.52895 0.20695
 N3646 N 0.65287 0.53388 0.20202
 C3647 C 0.67946 0.52781 0.22264
 C3648 C 0.68508 0.51746 0.21805
 C3649 C 0.69554 0.51225 0.22326
 C3650 C 0.70125 0.51693 0.23352
 C3651 C 0.69564 0.52729 0.23810
 C3652 C 0.68517 0.53249 0.23289
 H3653 H 0.63408 0.53711 0.18641
 H3654 H 0.61638 0.54598 0.17745
 H3655 H 0.61652 0.57310 0.20422
 H3656 H 0.63422 0.56416 0.21312
 H3657 H 0.68139 0.51330 0.21025
 H3658 H 0.69927 0.50449 0.21907
 H3659 H 0.69944 0.53156 0.24578
 H3660 H 0.68156 0.54038 0.23696
 C3661 C 0.63573 1.04944 0.70079
 C3662 C 0.63006 1.04479 0.69050
 C3663 C 0.61963 1.05003 0.68523
 C3664 C 0.61398 1.06038 0.68982
 C3665 C 0.61966 1.06502 0.70013
 C3666 C 0.63009 1.05977 0.70538
 C3667 C 0.64721 1.04366 0.70658
 N3668 N 0.65254 1.04827 0.71650
 N3669 N 0.66231 1.04335 0.72144
 C3670 C 0.66762 1.03339 0.71689
 N3671 N 0.66229 1.02878 0.70696
 N3672 N 0.65252 1.03370 0.70203
 C3673 C 0.67909 1.02761 0.72268
 C3674 C 0.68475 1.01730 0.71807
 C3675 C 0.69522 1.01209 0.72329
 C3676 C 0.70090 1.01674 0.73357
 C3677 C 0.69525 1.02707 0.73817
 C3678 C 0.68478 1.03227 0.73296
 H3679 H 0.63372 1.03695 0.68638
 H3680 H 0.61602 1.04583 0.67743
 H3681 H 0.61607 1.07285 0.70429
 H3682 H 0.63377 1.06392 0.71319
 H3683 H 0.68109 1.01316 0.71024
 H3684 H 0.69898 1.00435 0.71907
 H3685 H 0.69903 1.03132 0.74588
 H3686 H 0.68114 1.04013 0.73706
 C3687 C 0.86365 0.45009 0.30000
 C3688 C 0.86935 0.45473 0.31027
 C3689 C 0.87982 0.44951 0.31547
 C3690 C 0.88547 0.43919 0.31083
 C3691 C 0.87976 0.43455 0.30054
 C3692 C 0.86929 0.43979 0.29536
 C3693 C 0.85214 0.45585 0.29428
 N3694 N 0.84677 0.45126 0.28437
 N3695 N 0.83697 0.45618 0.27949
 C3696 C 0.83166 0.46611 0.28410
 N3697 N 0.83702 0.47070 0.29401
 N3698 N 0.84683 0.46579 0.29889
 C3699 C 0.82016 0.47188 0.27837
 C3700 C 0.81451 0.48217 0.28303
 C3701 C 0.80403 0.48740 0.27784
 C3702 C 0.79836 0.48279 0.26754
 C3703 C 0.80399 0.47247 0.26290
 C3704 C 0.81446 0.46725 0.26809
 H3705 H 0.86569 0.46255 0.31441
 H3706 H 0.88346 0.45370 0.32326
 H3707 H 0.88335 0.42673 0.29635
 H3708 H 0.86558 0.43564 0.28755
 H3709 H 0.81818 0.48629 0.29086
 H3710 H 0.80030 0.49515 0.28207
 H3711 H 0.80022 0.46827 0.25516
 H3712 H 0.81810 0.45941 0.26396
 C3713 C 0.86345 0.95023 0.80030
 C3714 C 0.86910 0.93992 0.79569
 C3715 C 0.87958 0.93470 0.80088
 C3716 C 0.88531 0.93937 0.81115
 C3717 C 0.87965 0.94970 0.81577
 C3718 C 0.86917 0.95490 0.81056
 C3719 C 0.85193 0.95596 0.79457
 N3720 N 0.84661 0.96591 0.79915
 N3721 N 0.83680 0.97080 0.79426
 C3722 C 0.83143 0.96616 0.78437
 N3723 N 0.83674 0.95621 0.77980
 N3724 N 0.84655 0.95133 0.78469
 C3725 C 0.81991 0.97190 0.77863
 C3726 C 0.81420 0.96721 0.76838
 C3727 C 0.80372 0.97241 0.76317
 C3728 C 0.79809 0.98275 0.76775
 C3729 C 0.80377 0.98741 0.77803
 C3730 C 0.81425 0.98222 0.78324
 H3731 H 0.86539 0.93575 0.78790
 H3732 H 0.88317 0.92688 0.79670
 H3733 H 0.88329 0.95392 0.82354
 H3734 H 0.86551 0.96273 0.81469
 H3735 H 0.81784 0.95935 0.76428
 H3736 H 0.79995 0.96816 0.75545
 H3737 H 0.80004 0.99519 0.78221
 H3738 H 0.81793 0.98638 0.79104
 C3739 C 0.38592 0.29907 0.79969
 C3740 C 0.38031 0.30940 0.79506
 C3741 C 0.36989 0.31468 0.80029
 C3742 C 0.36419 0.31007 0.81059
 C3743 C 0.36981 0.29972 0.81522
 C3744 C 0.38023 0.29446 0.80998
 C3745 C 0.39738 0.29327 0.79393
 N3746 N 0.40266 0.28331 0.79852
 N3747 N 0.41243 0.27837 0.79362
 C3748 C 0.41777 0.28294 0.78369
 N3749 N 0.41249 0.29289 0.77910
 N3750 N 0.40273 0.29784 0.78400
 C3751 C 0.42923 0.27713 0.77793
 C3752 C 0.43492 0.28176 0.76764
 C3753 C 0.44539 0.27654 0.76246
 C3754 C 0.45102 0.26622 0.76710
 C3755 C 0.44534 0.26160 0.77740
 C3756 C 0.43487 0.26683 0.78258
 H3757 H 0.38401 0.31353 0.78725
 H3758 H 0.36631 0.32251 0.79610
 H3759 H 0.36618 0.29554 0.82302
 H3760 H 0.38387 0.28662 0.81411
 H3761 H 0.43129 0.28961 0.76352
 H3762 H 0.44917 0.28076 0.75473
 H3763 H 0.44909 0.25387 0.78164
 H3764 H 0.43120 0.26272 0.79042
 C3765 C 0.88692 0.29975 0.29991
 C3766 C 0.88121 0.29509 0.31017
 C3767 C 0.87075 0.30031 0.31537
 C3768 C 0.86510 0.31064 0.31074
 C3769 C 0.87083 0.31529 0.30046
 C3770 C 0.88129 0.31006 0.29528
 C3771 C 0.89844 0.29399 0.29419
 N3772 N 0.90381 0.29860 0.28430
 N3773 N 0.91361 0.29370 0.27942
 C3774 C 0.91891 0.28375 0.28402
 N3775 N 0.91354 0.27915 0.29391
 N3776 N 0.90373 0.28405 0.29879
 C3777 C 0.93041 0.27799 0.27829
 C3778 C 0.93605 0.26768 0.28293
 C3779 C 0.94653 0.26247 0.27774
 C3780 C 0.95221 0.26710 0.26746
 C3781 C 0.94659 0.27743 0.26284
 C3782 C 0.93612 0.28265 0.26803
 H3783 H 0.88487 0.28726 0.31430
 H3784 H 0.86710 0.29610 0.32315
 H3785 H 0.86724 0.32311 0.29627
 H3786 H 0.88501 0.31421 0.28748
 H3787 H 0.93237 0.26355 0.29075
 H3788 H 0.95025 0.25471 0.28195
 H3789 H 0.95037 0.28166 0.25511
 H3790 H 0.93249 0.29050 0.26391
 C3791 C 0.36336 0.80048 0.45025
 C3792 C 0.36908 0.79584 0.43999
 C3793 C 0.37956 0.80106 0.43480
 C3794 C 0.38521 0.81138 0.43946
 C3795 C 0.37947 0.81602 0.44973
 C3796 C 0.36900 0.81079 0.45490
 C3797 C 0.35184 0.79473 0.45595
 N3798 N 0.34646 0.79933 0.46584
 N3799 N 0.33665 0.79443 0.47070
 C3800 C 0.33135 0.78449 0.46609
 N3801 N 0.33673 0.77989 0.45620
 N3802 N 0.34655 0.78480 0.45134
 C3803 C 0.31984 0.77873 0.47180
 C3804 C 0.31420 0.76843 0.46715
 C3805 C 0.30372 0.76321 0.47232
 C3806 C 0.29803 0.76784 0.48260
 C3807 C 0.30364 0.77817 0.48723
 C3808 C 0.31412 0.78338 0.48206
 H3809 H 0.36543 0.78802 0.43584
 H3810 H 0.38321 0.79686 0.42702
 H3811 H 0.38306 0.82384 0.45393
 H3812 H 0.36528 0.81494 0.46270
 H3813 H 0.31789 0.76430 0.45933
 H3814 H 0.29999 0.75545 0.46810
 H3815 H 0.29986 0.78239 0.49496
 H3816 H 0.31775 0.79123 0.48619
 C3817 C 0.36414 0.29919 0.95124
 C3818 C 0.36975 0.30952 0.95587
 C3819 C 0.38017 0.31482 0.95065
 C3820 C 0.38587 0.31021 0.94034
 C3821 C 0.38024 0.29987 0.93571
 C3822 C 0.36982 0.29459 0.94095
 C3823 C 0.35268 0.29338 0.95700
 N3824 N 0.34739 0.28343 0.95239
 N3825 N 0.33763 0.27847 0.95730
 C3826 C 0.33229 0.28302 0.96724
 N3827 N 0.33757 0.29297 0.97184
 N3828 N 0.34733 0.29793 0.96694
 C3829 C 0.32082 0.27721 0.97299
 C3830 C 0.31515 0.28181 0.98330
 C3831 C 0.30468 0.27657 0.98848
 C3832 C 0.29904 0.26627 0.98383
 C3833 C 0.30471 0.26167 0.97351
 C3834 C 0.31518 0.26691 0.96833
 H3835 H 0.36605 0.31364 0.96369
 H3836 H 0.38374 0.32264 0.95483
 H3837 H 0.38388 0.29569 0.92790
 H3838 H 0.36619 0.28675 0.93681
 H3839 H 0.31878 0.28965 0.98744
 H3840 H 0.30090 0.28078 0.99622
 H3841 H 0.30096 0.25395 0.96926
 H3842 H 0.31884 0.26281 0.96048
 C3843 C 0.79989 0.45020 0.36362
 C3844 C 0.81018 0.45484 0.36928
 C3845 C 0.81538 0.44967 0.37977
 C3846 C 0.81071 0.43940 0.38549
 C3847 C 0.80041 0.43475 0.37981
 C3848 C 0.79523 0.43994 0.36932
 C3849 C 0.79418 0.45590 0.35208
 N3850 N 0.78425 0.45131 0.34675
 N3851 N 0.77939 0.45617 0.33692
 C3852 C 0.78402 0.46606 0.33156
 N3853 N 0.79395 0.47065 0.33688
 N3854 N 0.79882 0.46579 0.34671
 C3855 C 0.77830 0.47178 0.32003
 C3856 C 0.78300 0.48202 0.31432
 C3857 C 0.77782 0.48721 0.30382
 C3858 C 0.76750 0.48260 0.29818
 C3859 C 0.76283 0.47233 0.30386
 C3860 C 0.76800 0.46715 0.31436
 H3861 H 0.81435 0.46263 0.36557
 H3862 H 0.82319 0.45386 0.38338
 H3863 H 0.79619 0.42697 0.38346
 H3864 H 0.78741 0.43580 0.36564
 H3865 H 0.79084 0.48613 0.31796
 H3866 H 0.78207 0.49493 0.30005
 H3867 H 0.75507 0.46813 0.30012
 H3868 H 0.76385 0.45934 0.31804
 C3869 C 0.80002 0.95030 0.86371
 C3870 C 0.79542 0.93999 0.86938
 C3871 C 0.80065 0.93479 0.87985
 C3872 C 0.81093 0.93947 0.88554
 C3873 C 0.81554 0.94979 0.87985
 C3874 C 0.81030 0.95497 0.86938
 C3875 C 0.79426 0.95601 0.85219
 N3876 N 0.79883 0.96594 0.84684
 N3877 N 0.79392 0.97081 0.83703
 C3878 C 0.78401 0.96618 0.83171
 N3879 N 0.77944 0.95625 0.83705
 N3880 N 0.78435 0.95138 0.84686
 C3881 C 0.77824 0.97191 0.82020
 C3882 C 0.76795 0.96724 0.81453
 C3883 C 0.76273 0.97242 0.80405
 C3884 C 0.76733 0.98274 0.79839
 C3885 C 0.77763 0.98739 0.80404
 C3886 C 0.78285 0.98220 0.81451
 H3887 H 0.78762 0.93582 0.86570
 H3888 H 0.79648 0.92698 0.88347
 H3889 H 0.82333 0.95401 0.88347
 H3890 H 0.81442 0.96280 0.86569
 H3891 H 0.76385 0.95939 0.81819
 H3892 H 0.75499 0.96819 0.80031
 H3893 H 0.78183 0.99514 0.80028
 H3894 H 0.79068 0.98635 0.81816
 C3895 C 0.29945 0.80029 0.38646
 C3896 C 0.29477 0.81053 0.38075
 C3897 C 0.29994 0.81572 0.37025
 C3898 C 0.31025 0.81108 0.36458
 C3899 C 0.31494 0.80082 0.37031
 C3900 C 0.30975 0.79565 0.38080
 C3901 C 0.29376 0.79459 0.39800
 N3902 N 0.29841 0.78472 0.40338
 N3903 N 0.29355 0.77986 0.41322
 C3904 C 0.28362 0.78444 0.41854
 N3905 N 0.27897 0.79432 0.41316
 N3906 N 0.28383 0.79918 0.40333
 C3907 C 0.27792 0.77874 0.43007
 C3908 C 0.26761 0.78336 0.43573
 C3909 C 0.26245 0.77818 0.44623
 C3910 C 0.26714 0.76793 0.45192
 C3911 C 0.27746 0.76333 0.44629
 C3912 C 0.28262 0.76850 0.43579
 H3913 H 0.28695 0.81467 0.38443
 H3914 H 0.29572 0.82349 0.36660
 H3915 H 0.32274 0.79663 0.36670
 H3916 H 0.31392 0.78787 0.38452
 H3917 H 0.26344 0.79116 0.43204
 H3918 H 0.25468 0.78238 0.44997
 H3919 H 0.28172 0.75562 0.45007
 H3920 H 0.29048 0.76440 0.43214
 C3921 C 0.29914 0.29921 0.88637
 C3922 C 0.29457 0.30957 0.88077
 C3923 C 0.29981 0.31482 0.87034
 C3924 C 0.31009 0.31015 0.86463
 C3925 C 0.31466 0.29978 0.87025
 C3926 C 0.30940 0.29454 0.88068
 C3927 C 0.29337 0.29343 0.89784
 N3928 N 0.29790 0.28344 0.90310
 N3929 N 0.29298 0.27852 0.91287
 C3930 C 0.28309 0.28315 0.91823
 N3931 N 0.27856 0.29314 0.91297
 N3932 N 0.28348 0.29806 0.90320
 C3933 C 0.27732 0.27737 0.92970
 C3934 C 0.26708 0.28205 0.93542
 C3935 C 0.26188 0.27684 0.94589
 C3936 C 0.26646 0.26648 0.95148
 C3937 C 0.27671 0.26180 0.94577
 C3938 C 0.28191 0.26701 0.93530
 H3939 H 0.28678 0.31373 0.88448
 H3940 H 0.29567 0.32267 0.86677
 H3941 H 0.32244 0.29556 0.86661
 H3942 H 0.31350 0.28668 0.88431
 H3943 H 0.26300 0.28994 0.93182
 H3944 H 0.25420 0.28112 0.94971
 H3945 H 0.28090 0.25403 0.94949
 H3946 H 0.28971 0.26285 0.93160
 C3947 C 0.45090 0.29927 0.86456
 C3948 C 0.44062 0.29463 0.87025
 C3949 C 0.43537 0.29989 0.88067
 C3950 C 0.43996 0.31025 0.88628
 C3951 C 0.45025 0.31490 0.88057
 C3952 C 0.45548 0.30962 0.87015
 C3953 C 0.45667 0.29347 0.85309
 N3954 N 0.46657 0.29807 0.84773
 N3955 N 0.47149 0.29313 0.83797
 C3956 C 0.46693 0.28314 0.83271
 N3957 N 0.45703 0.27854 0.83807
 N3958 N 0.45211 0.28349 0.84783
 C3959 C 0.47270 0.27734 0.82124
 C3960 C 0.46809 0.26700 0.81563
 C3961 C 0.47329 0.26178 0.80517
 C3962 C 0.48356 0.26643 0.79947
 C3963 C 0.48816 0.27677 0.80507
 C3964 C 0.48296 0.28200 0.81553
 H3965 H 0.43652 0.28677 0.86663
 H3966 H 0.42759 0.29568 0.88432
 H3967 H 0.45440 0.32275 0.88414
 H3968 H 0.46328 0.31377 0.86644
 H3969 H 0.46028 0.26287 0.81932
 H3970 H 0.46908 0.25402 0.80144
 H3971 H 0.49586 0.28103 0.80126
 H3972 H 0.48706 0.28987 0.81914
 C3973 C 0.95074 0.29961 0.36367
 C3974 C 0.95541 0.30988 0.36935
 C3975 C 0.95023 0.31508 0.37985
 C3976 C 0.93994 0.31044 0.38555
 C3977 C 0.93527 0.30015 0.37985
 C3978 C 0.94046 0.29497 0.36936
 C3979 C 0.95644 0.29388 0.35213
 N3980 N 0.95181 0.28398 0.34679
 N3981 N 0.95666 0.27910 0.33696
 C3982 C 0.96658 0.28369 0.33161
 N3983 N 0.97122 0.29359 0.33695
 N3984 N 0.96636 0.29847 0.34678
 C3985 C 0.97228 0.27795 0.32008
 C3986 C 0.98257 0.28258 0.31438
 C3987 C 0.98773 0.27738 0.30388
 C3988 C 0.98306 0.26709 0.29823
 C3989 C 0.97275 0.26249 0.30390
 C3990 C 0.96759 0.26769 0.31439
 H3991 H 0.96321 0.31403 0.36566
 H3992 H 0.95444 0.32287 0.38347
 H3993 H 0.92748 0.29595 0.38348
 H3994 H 0.93630 0.28716 0.36567
 H3995 H 0.98673 0.29040 0.31804
 H3996 H 0.99548 0.28157 0.30012
 H3997 H 0.96850 0.25476 0.30014
 H3998 H 0.95975 0.26358 0.31806
 C3999 C 0.45038 0.36358 0.80008
 C4000 C 0.45499 0.36922 0.81040
 C4001 C 0.44974 0.37963 0.81567
 C4002 C 0.43941 0.38529 0.81105
 C4003 C 0.43480 0.37964 0.80072
 C4004 C 0.44007 0.36923 0.79546
 C4005 C 0.45618 0.35213 0.79428
 N4006 N 0.45161 0.34682 0.78433
 N4007 N 0.45654 0.33707 0.77940
 C4008 C 0.46649 0.33175 0.78397
 N4009 N 0.47106 0.33706 0.79393
 N4010 N 0.46612 0.34681 0.79886
 C4011 C 0.47228 0.32030 0.77818
 C4012 C 0.48258 0.31464 0.78281
 C4013 C 0.48780 0.30419 0.77759
 C4014 C 0.48319 0.29855 0.76727
 C4015 C 0.47288 0.30420 0.76264
 C4016 C 0.46766 0.31465 0.76787
 H4017 H 0.46282 0.36555 0.81452
 H4018 H 0.45392 0.38323 0.82349
 H4019 H 0.42698 0.38324 0.79654
 H4020 H 0.43595 0.36556 0.78763
 H4021 H 0.48669 0.31828 0.79066
 H4022 H 0.49553 0.30042 0.78181
 H4023 H 0.46866 0.30045 0.75490
 H4024 H 0.45981 0.31830 0.76375
 C4025 C 0.95037 0.36317 0.29990
 C4026 C 0.95503 0.36884 0.31018
 C4027 C 0.94984 0.37932 0.31541
 C4028 C 0.93953 0.38501 0.31078
 C4029 C 0.93487 0.37932 0.30049
 C4030 C 0.94008 0.36885 0.29528
 C4031 C 0.95610 0.35164 0.29415
 N4032 N 0.95148 0.34631 0.28423
 N4033 N 0.95636 0.33650 0.27933
 C4034 C 0.96628 0.33116 0.28392
 N4035 N 0.97089 0.33649 0.29384
 N4036 N 0.96602 0.34630 0.29874
 C4037 C 0.97201 0.31964 0.27816
 C4038 C 0.98229 0.31395 0.28280
 C4039 C 0.98748 0.30347 0.27759
 C4040 C 0.98285 0.29783 0.26727
 C4041 C 0.97255 0.30350 0.26266
 C4042 C 0.96735 0.31397 0.26787
 H4043 H 0.96285 0.36516 0.31431
 H4044 H 0.95406 0.38294 0.32320
 H4045 H 0.92707 0.38294 0.29631
 H4046 H 0.93592 0.36516 0.28748
 H4047 H 0.98643 0.31759 0.29064
 H4048 H 0.99522 0.29971 0.28180
 H4049 H 0.96832 0.29976 0.25491
 H4050 H 0.95952 0.31764 0.26375
 C4051 C 0.30000 0.86395 0.45009
 C4052 C 0.31031 0.86960 0.45471
 C4053 C 0.31555 0.88006 0.44951
 C4054 C 0.31092 0.88577 0.43922
 C4055 C 0.30059 0.88011 0.43459
 C4056 C 0.29536 0.86965 0.43981
 C4057 C 0.29423 0.85244 0.45583
 N4058 N 0.28429 0.84713 0.45124
 N4059 N 0.27938 0.83733 0.45613
 C4060 C 0.28397 0.83198 0.46605
 N4061 N 0.29391 0.83729 0.47064
 N4062 N 0.29883 0.84708 0.46575
 C4063 C 0.27820 0.82047 0.47180
 C4064 C 0.28283 0.81478 0.48208
 C4065 C 0.27761 0.80432 0.48729
 C4066 C 0.26728 0.79868 0.48267
 C4067 C 0.26267 0.80434 0.47236
 C4068 C 0.26790 0.81481 0.46716
 H4069 H 0.31446 0.86590 0.46252
 H4070 H 0.32337 0.88365 0.45370
 H4071 H 0.29639 0.88374 0.42680
 H4072 H 0.28753 0.86599 0.43567
 H4073 H 0.29068 0.81842 0.48621
 H4074 H 0.28182 0.80056 0.49504
 H4075 H 0.25492 0.80061 0.46815
 H4076 H 0.26378 0.81847 0.45932
 C4077 C 0.29982 0.36359 0.95089
 C4078 C 0.31015 0.36922 0.95549
 C4079 C 0.31543 0.37963 0.95023
 C4080 C 0.31081 0.38529 0.93990
 C4081 C 0.30047 0.37965 0.93530
 C4082 C 0.29521 0.36924 0.94058
 C4083 C 0.29402 0.35214 0.95669
 N4084 N 0.28406 0.34684 0.95213
 N4085 N 0.27911 0.33709 0.95707
 C4086 C 0.28369 0.33177 0.96701
 N4087 N 0.29365 0.33707 0.97158
 N4088 N 0.29860 0.34682 0.96663
 C4089 C 0.27788 0.32032 0.97281
 C4090 C 0.28251 0.31465 0.98311
 C4091 C 0.27728 0.30421 0.98834
 C4092 C 0.26694 0.29858 0.98373
 C4093 C 0.26232 0.30424 0.97342
 C4094 C 0.26756 0.31469 0.96820
 H4095 H 0.31428 0.36555 0.96332
 H4096 H 0.32326 0.38322 0.95439
 H4097 H 0.29628 0.38325 0.92749
 H4098 H 0.28736 0.36558 0.93647
 H4099 H 0.29037 0.31828 0.98722
 H4100 H 0.28151 0.30044 0.99607
 H4101 H 0.25458 0.30050 0.96921
 H4102 H 0.26344 0.31834 0.96036
 C4103 C 0.80017 0.38661 0.29984
 C4104 C 0.79551 0.38092 0.31011
 C4105 C 0.80071 0.37045 0.31533
 C4106 C 0.81102 0.36478 0.31070
 C4107 C 0.81569 0.37048 0.30042
 C4108 C 0.81047 0.38095 0.29522
 C4109 C 0.79444 0.39812 0.29411
 N4110 N 0.79905 0.40347 0.28420
 N4111 N 0.79416 0.41328 0.27931
 C4112 C 0.78423 0.41861 0.28390
 N4113 N 0.77962 0.41326 0.29381
 N4114 N 0.78451 0.40345 0.29870
 C4115 C 0.77849 0.43011 0.27817
 C4116 C 0.76820 0.43578 0.28281
 C4117 C 0.76300 0.44626 0.27761
 C4118 C 0.76763 0.45192 0.26731
 C4119 C 0.77794 0.44628 0.26269
 C4120 C 0.78315 0.43580 0.26789
 H4121 H 0.78768 0.38459 0.31424
 H4122 H 0.79650 0.36682 0.32311
 H4123 H 0.82350 0.36687 0.29623
 H4124 H 0.81463 0.38465 0.28742
 H4125 H 0.76407 0.43211 0.29064
 H4126 H 0.75525 0.45000 0.28183
 H4127 H 0.78216 0.45004 0.25495
 H4128 H 0.79099 0.43215 0.26377
   
