data_POSCAR
  _audit_creation_date              2014-09-24
  _audit_creation_method            'ToBaCCo'
  _symmetry_space_group_name_H-M    'P1'
  _symmetry_Int_Tables_number       1
  _symmetry_cell_setting            triclinic
  loop_
  _symmetry_equiv_pos_as_xyz
 x,y,z
_cell_length_a 67.7529
_cell_length_b 67.6564
_cell_length_c 67.5696
_cell_angle_alpha 89.943700
_cell_angle_beta 89.990500
_cell_angle_gamma 89.971500
loop_
  _atom_site_label
  _atom_site_type_symbol
  _atom_site_fract_x
  _atom_site_fract_y
  _atom_site_fract_z
N1 N 0.36002 1.34729 0.30564
 N2 N 0.34632 1.36109 0.30594
 C3 C 0.34925 1.37353 0.29059
 C4 C 0.36559 1.36704 0.28031
 C5 C 0.37213 1.35044 0.29014
 H6 H 0.34022 1.38625 0.28712
 H7 H 0.38468 1.34132 0.28629
 Cu8 Cu 0.32596 1.36106 0.32630
 Cu9 Cu 0.36118 1.32619 0.32529
 Cu10 Cu 0.32490 1.32614 0.36159
 N11 N 0.30560 1.36103 0.34667
 N12 N 0.30529 1.34721 0.36040
 C13 C 0.28980 1.35031 0.37251
 C14 C 0.27999 1.36690 0.36594
 C15 C 0.29027 1.37343 0.34959
 H16 H 0.28594 1.34117 0.38507
 H17 H 0.28681 1.38616 0.34053
 N18 N 0.34603 1.30610 0.36028
 N19 N 0.35984 1.30611 0.34646
 C20 C 0.37205 1.29068 0.34957
 C21 C 0.36555 1.28061 0.36604
 C22 C 0.34910 1.29066 0.37253
 H23 H 0.38474 1.28701 0.34059
 H24 H 0.34012 1.28697 0.38523
 H25 H 0.33136 1.32581 0.33170
 H26 H 0.34733 1.34150 0.34775
 N27 N 0.36005 0.84696 0.80600
 N28 N 0.34619 0.86058 0.80615
 C29 C 0.34911 0.87301 0.79082
 C30 C 0.36560 0.86672 0.78070
 C31 C 0.37224 0.85022 0.79061
 H32 H 0.33998 0.88564 0.78724
 H33 H 0.38492 0.84126 0.78687
 Cu34 Cu 0.32566 0.86052 0.82626
 Cu35 Cu 0.36127 0.82595 0.82567
 Cu36 Cu 0.32505 0.82590 0.86195
 N37 N 0.30557 0.86053 0.84681
 N38 N 0.30543 0.84689 0.86071
 C39 C 0.29005 0.85011 0.87291
 C40 C 0.28016 0.86661 0.86624
 C41 C 0.29028 0.87293 0.84973
 H42 H 0.28631 0.84113 0.88561
 H43 H 0.28670 0.88556 0.84057
 N44 N 0.34617 0.80594 0.86067
 N45 N 0.35997 0.80595 0.84684
 C46 C 0.37218 0.79053 0.84992
 C47 C 0.36568 0.78047 0.86639
 C48 C 0.34925 0.79050 0.87290
 H49 H 0.38485 0.78684 0.84091
 H50 H 0.34025 0.78679 0.88560
 H51 H 0.33144 0.82541 0.83205
 H52 H 0.34725 0.84149 0.84793
 N53 N 0.86032 1.34697 0.80549
 N54 N 0.84665 1.36080 0.80581
 C55 C 0.84952 1.37318 0.79042
 C56 C 0.86581 1.36665 0.78009
 C57 C 0.87237 1.35006 0.78993
 H58 H 0.84052 1.38593 0.78698
 H59 H 0.88494 1.34097 0.78610
 Cu60 Cu 0.82647 1.36123 0.82632
 Cu61 Cu 0.86151 1.32600 0.82522
 Cu62 Cu 0.82530 1.32599 0.86148
 N63 N 0.80599 1.36077 0.84653
 N64 N 0.80565 1.34694 0.86023
 C65 C 0.79013 1.35001 0.87228
 C66 C 0.78030 1.36657 0.86571
 C67 C 0.79063 1.37311 0.84940
 H68 H 0.78628 1.34091 0.88488
 H69 H 0.78718 1.38587 0.84038
 N70 N 0.84642 1.30604 0.86025
 N71 N 0.86023 1.30603 0.84644
 C72 C 0.87244 1.29061 0.84957
 C73 C 0.86593 1.28058 0.86606
 C74 C 0.84949 1.29063 0.87253
 H75 H 0.88512 1.28691 0.84058
 H76 H 0.84049 1.28696 0.88523
 H77 H 0.83164 1.32596 0.83155
 H78 H 0.84774 1.34146 0.84772
 N79 N 0.86039 0.84679 0.30541
 N80 N 0.84640 0.86030 0.30543
 C81 C 0.84927 0.87270 0.29006
 C82 C 0.86586 0.86649 0.28002
 C83 C 0.87262 0.85009 0.29004
 H84 H 0.84007 0.88527 0.28644
 H85 H 0.88544 0.84125 0.28645
 Cu86 Cu 0.82606 0.86029 0.32580
 Cu87 Cu 0.86174 0.82588 0.32525
 Cu88 Cu 0.82546 0.82582 0.36155
 N89 N 0.80570 0.86022 0.34615
 N90 N 0.80566 0.84670 0.36017
 C91 C 0.79031 0.84995 0.37239
 C92 C 0.78029 0.86634 0.36563
 C93 C 0.79034 0.87258 0.34902
 H94 H 0.78670 0.84110 0.38523
 H95 H 0.78672 0.88515 0.33982
 N96 N 0.84673 0.80595 0.36039
 N97 N 0.86054 0.80596 0.34657
 C98 C 0.87277 0.79055 0.34969
 C99 C 0.86627 0.78049 0.36617
 C100 C 0.84982 0.79053 0.37265
 H101 H 0.88542 0.78683 0.34067
 H102 H 0.84078 0.78680 0.38531
 H103 H 0.83196 0.82524 0.33171
 H104 H 0.84771 0.84136 0.34756
 N105 N 0.63970 0.65343 0.30581
 N106 N 0.65349 0.63973 0.30603
 C107 C 0.65061 0.62735 0.29067
 C108 C 0.63418 0.63372 0.28047
 C109 C 0.62755 0.65022 0.29038
 H110 H 0.65970 0.61469 0.28713
 H111 H 0.61486 0.65918 0.28665
 Cu112 Cu 0.67387 0.63974 0.32633
 Cu113 Cu 0.63844 0.67442 0.32552
 Cu114 Cu 0.67471 0.67441 0.36181
 N115 N 0.69417 0.63973 0.34671
 N116 N 0.69440 0.65342 0.36052
 C117 C 0.70983 0.65021 0.37266
 C118 C 0.71972 0.63370 0.36601
 C119 C 0.70951 0.62735 0.34956
 H120 H 0.71357 0.65916 0.38537
 H121 H 0.71304 0.61469 0.34045
 N122 N 0.65352 0.69438 0.36056
 N123 N 0.63971 0.69438 0.34674
 C124 C 0.62748 0.70978 0.34984
 C125 C 0.63396 0.71982 0.36631
 C126 C 0.65042 0.70979 0.37280
 H127 H 0.61480 0.71347 0.34084
 H128 H 0.65940 0.71348 0.38550
 H129 H 0.66823 0.67489 0.33195
 H130 H 0.65236 0.65901 0.34793
 N131 N 0.63977 0.15321 0.80545
 N132 N 0.65377 0.13972 0.80545
 C133 C 0.65085 0.12731 0.79012
 C134 C 0.63422 0.13349 0.78013
 C135 C 0.62749 0.14990 0.79013
 H136 H 0.66009 0.11478 0.78647
 H137 H 0.61470 0.15877 0.78651
 Cu138 Cu 0.67449 0.13980 0.82544
 Cu139 Cu 0.63855 0.17414 0.82520
 Cu140 Cu 0.67478 0.17417 0.86142
 N141 N 0.69447 0.13977 0.84616
 N142 N 0.69447 0.15327 0.86016
 C143 C 0.70978 0.15000 0.87244
 C144 C 0.71980 0.13361 0.86573
 C145 C 0.70980 0.12740 0.84909
 H146 H 0.71340 0.15888 0.88523
 H147 H 0.71348 0.11487 0.83987
 N148 N 0.65361 0.19409 0.86022
 N149 N 0.63979 0.19410 0.84642
 C150 C 0.62758 0.20952 0.84954
 C151 C 0.63410 0.21955 0.86601
 C152 C 0.65055 0.20950 0.87247
 H153 H 0.61491 0.21323 0.84054
 H154 H 0.65957 0.21318 0.88514
 H155 H 0.66841 0.17484 0.83153
 H156 H 0.65276 0.15845 0.84730
 N157 N 1.13987 0.65348 0.80581
 N158 N 1.15372 0.63983 0.80603
 C159 C 1.15085 0.62743 0.79070
 C160 C 1.13441 0.63373 0.78049
 C161 C 1.12774 0.65023 0.79037
 H162 H 1.15999 0.61479 0.78721
 H163 H 1.11504 0.65916 0.78659
 Cu164 Cu 1.17412 0.63969 0.82627
 Cu165 Cu 1.13866 0.67441 0.82551
 Cu166 Cu 1.17489 0.67445 0.86176
 N167 N 1.19436 0.63989 0.84669
 N168 N 1.19457 0.65355 0.86053
 C169 C 1.21000 0.65034 0.87267
 C170 C 1.21988 0.63385 0.86599
 C171 C 1.20968 0.62751 0.84955
 H172 H 1.21378 0.65929 0.88537
 H173 H 1.21319 0.61487 0.84041
 N174 N 1.15373 0.69435 0.86049
 N175 N 1.13993 0.69434 0.84668
 C176 C 1.12770 0.70975 0.84978
 C177 C 1.13420 0.71979 0.86624
 C178 C 1.15065 0.70975 0.87273
 H179 H 1.11503 0.71341 0.84076
 H180 H 1.15966 0.71343 0.88541
 H181 H 1.16857 0.67471 0.83178
 H182 H 1.15264 0.65873 0.84782
 N183 N 1.13984 0.15318 0.30560
 N184 N 1.15364 0.13949 0.30582
 C185 C 1.15080 0.12715 0.29044
 C186 C 1.13441 0.13354 0.28021
 C187 C 1.12774 0.15001 0.29012
 H188 H 1.15989 0.11448 0.28692
 H189 H 1.11505 0.15896 0.28637
 Cu190 Cu 1.17383 0.13915 0.32625
 Cu191 Cu 1.13853 0.17406 0.32533
 Cu192 Cu 1.17476 0.17406 0.36159
 N193 N 1.19425 0.13949 0.34646
 N194 N 1.19448 0.15318 0.36028
 C195 C 1.20995 0.15002 0.37238
 C196 C 1.21985 0.13355 0.36569
 C197 C 1.20963 0.12716 0.34929
 H198 H 1.21370 0.15897 0.38509
 H199 H 1.21314 0.11450 0.34018
 N200 N 1.15354 0.19394 0.36038
 N201 N 1.13974 0.19394 0.34656
 C202 C 1.12750 0.20933 0.34966
 C203 C 1.13399 0.21936 0.36613
 C204 C 1.15044 0.20934 0.37263
 H205 H 1.11484 0.21303 0.34064
 H206 H 1.15944 0.21304 0.38531
 H207 H 1.16838 0.17431 0.33166
 H208 H 1.15239 0.15856 0.34774
 N209 N 0.63973 1.34661 0.69417
 N210 N 0.65373 1.36009 0.69415
 C211 C 0.65082 1.37249 0.70948
 C212 C 0.63420 1.36633 0.71949
 C213 C 0.62747 1.34994 0.70949
 H214 H 0.66004 1.38500 0.71314
 H215 H 0.61467 1.34111 0.71312
 Cu216 Cu 0.67439 1.36000 0.67415
 Cu217 Cu 0.63846 1.32571 0.67445
 Cu218 Cu 0.67467 1.32565 0.63820
 N219 N 0.69438 1.36002 0.65347
 N220 N 0.69440 1.34652 0.63946
 C221 C 0.70971 1.34981 0.62719
 C222 C 0.71971 1.36619 0.63393
 C223 C 0.70971 1.37238 0.65056
 H224 H 0.71333 1.34095 0.61437
 H225 H 0.71337 1.38490 0.65979
 N226 N 0.65347 1.30577 0.63943
 N227 N 0.63967 1.30579 0.65325
 C228 C 0.62744 1.29041 0.65018
 C229 C 0.63391 1.28036 0.63371
 C230 C 0.65037 1.29036 0.62720
 H231 H 0.61478 1.28673 0.65920
 H232 H 0.65937 1.28664 0.61452
 H233 H 0.66829 1.32499 0.66811
 H234 H 0.65263 1.34139 0.65235
 N235 N 0.63966 0.84673 1.19427
 N236 N 0.65347 0.86040 1.19407
 C237 C 0.65060 0.87275 1.20945
 C238 C 0.63418 0.86638 1.21966
 C239 C 0.62754 0.84991 1.20973
 H240 H 0.65969 0.88540 1.21298
 H241 H 0.61484 0.84097 1.21347
 Cu242 Cu 0.67373 0.86066 1.17365
 Cu243 Cu 0.63840 0.82583 1.17452
 Cu244 Cu 0.67467 0.82580 1.13827
 N245 N 0.69416 0.86037 1.15341
 N246 N 0.69439 0.84670 1.13957
 C247 C 0.70985 0.84987 1.12747
 C248 C 0.71975 0.86633 1.13415
 C249 C 0.70952 0.87271 1.15058
 H250 H 0.71361 0.84092 1.11475
 H251 H 0.71303 0.88535 1.15970
 N252 N 0.65345 0.80592 1.13947
 N253 N 0.63964 0.80593 1.15328
 C254 C 0.62741 0.79053 1.15018
 C255 C 0.63391 0.78049 1.13371
 C256 C 0.65037 0.79051 1.12722
 H257 H 0.61475 0.78685 1.15920
 H258 H 0.65938 0.78681 1.11455
 H259 H 0.66826 0.82551 1.16819
 H260 H 0.65230 0.84132 1.15212
 N261 N 1.13988 1.34650 1.19418
 N262 N 1.15373 1.36013 1.19402
 C263 C 1.15086 1.37248 1.20940
 C264 C 1.13439 1.36616 1.21956
 C265 C 1.12772 1.34972 1.20961
 H266 H 1.15996 1.38512 1.21294
 H267 H 1.11499 1.34081 1.21331
 Cu268 Cu 1.17396 1.36039 1.17359
 Cu269 Cu 1.13859 1.32560 1.17444
 Cu270 Cu 1.17482 1.32560 1.13815
 N271 N 1.19436 1.36013 1.15333
 N272 N 1.19454 1.34650 1.13945
 C273 C 1.20994 1.34972 1.12728
 C274 C 1.21987 1.36617 1.13398
 C275 C 1.20971 1.37248 1.15048
 H276 H 1.21364 1.34082 1.11452
 H277 H 1.21324 1.38511 1.15961
 N278 N 1.15362 1.30569 1.13938
 N279 N 1.13982 1.30570 1.15321
 C280 C 1.12760 1.29030 1.15012
 C281 C 1.13408 1.28027 1.13365
 C282 C 1.15052 1.29029 1.12713
 H283 H 1.11493 1.28661 1.15914
 H284 H 1.15952 1.28659 1.11444
 H285 H 1.16836 1.32527 1.16801
 H286 H 1.15243 1.34112 1.15201
 N287 N 1.13970 0.84651 0.69432
 N288 N 1.15366 0.86003 0.69426
 C289 C 1.15080 0.87238 0.70964
 C290 C 1.13423 0.86617 0.71970
 C291 C 1.12749 0.84979 0.70969
 H292 H 1.15999 0.88494 0.71327
 H293 H 1.11467 0.84097 0.71330
 Cu294 Cu 1.17398 0.86001 0.67393
 Cu295 Cu 1.13834 0.82562 0.67452
 Cu296 Cu 1.17461 0.82562 0.63822
 N297 N 1.19431 0.86001 0.65360
 N298 N 1.19438 0.84650 0.63960
 C299 C 1.20975 0.84978 0.62740
 C300 C 1.21973 0.86616 0.63418
 C301 C 1.20966 0.87237 0.65077
 H302 H 1.21337 0.84096 0.61456
 H303 H 1.21327 0.88492 0.65998
 N304 N 1.15335 0.80575 0.63940
 N305 N 1.13954 0.80576 0.65323
 C306 C 1.12732 0.79036 0.65013
 C307 C 1.13381 0.78033 0.63366
 C308 C 1.15025 0.79035 0.62715
 H309 H 1.11467 0.78665 0.65916
 H310 H 1.15927 0.78663 0.61449
 H311 H 1.16811 0.82499 0.66807
 H312 H 1.15234 0.84113 0.65221
 N313 N 0.35991 0.65345 0.69410
 N314 N 0.34614 0.63974 0.69388
 C315 C 0.34900 0.62739 0.70928
 C316 C 0.36538 0.63378 0.71950
 C317 C 0.37201 0.65027 0.70958
 H318 H 0.33993 0.61471 0.71281
 H319 H 0.38469 0.65923 0.71331
 Cu320 Cu 0.32593 0.63944 0.67344
 Cu321 Cu 0.36118 0.67437 0.67435
 Cu322 Cu 0.32497 0.67439 0.63807
 N323 N 0.30553 0.63977 0.65321
 N324 N 0.30528 0.65348 0.63938
 C325 C 0.28983 0.65033 0.62728
 C326 C 0.27995 0.63384 0.63396
 C327 C 0.29018 0.62743 0.65038
 H328 H 0.28609 0.65929 0.61455
 H329 H 0.28667 0.61476 0.65949
 N330 N 0.34614 0.69430 0.63927
 N331 N 0.35994 0.69429 0.65310
 C332 C 0.37216 0.70969 0.64999
 C333 C 0.36567 0.71973 0.63350
 C334 C 0.34923 0.70971 0.62701
 H335 H 0.38481 0.71338 0.65900
 H336 H 0.34023 0.71342 0.61431
 H337 H 0.33135 0.67463 0.66799
 H338 H 0.34736 0.65890 0.65193
 N339 N 0.36034 0.15342 1.19414
 N340 N 0.34647 0.13981 1.19401
 C341 C 0.34939 0.12739 1.20934
 C342 C 0.36587 0.13368 1.21947
 C343 C 0.37251 0.15017 1.20955
 H344 H 0.34027 0.11477 1.21292
 H345 H 0.38518 0.15914 1.21331
 Cu346 Cu 0.32594 0.13986 1.17389
 Cu347 Cu 0.36155 0.17441 1.17446
 Cu348 Cu 0.32534 0.17444 1.13817
 N349 N 0.30585 0.13985 1.15331
 N350 N 0.30570 0.15347 1.13940
 C351 C 0.29032 0.15023 1.12721
 C352 C 0.28043 0.13374 1.13389
 C353 C 0.29056 0.12744 1.15041
 H354 H 0.28655 0.15922 1.11451
 H355 H 0.28701 0.11482 1.15958
 N356 N 0.34647 0.19440 1.13944
 N357 N 0.36026 0.19439 1.15327
 C358 C 0.37248 0.20980 1.15019
 C359 C 0.36599 0.21986 1.13371
 C360 C 0.34956 0.20983 1.12720
 H361 H 0.38514 0.21346 1.15921
 H362 H 0.34058 0.21354 1.11450
 H363 H 0.33174 0.17495 1.16808
 H364 H 0.34755 0.15882 1.15222
 N365 N 0.86043 0.65329 1.19416
 N366 N 0.84677 0.63947 1.19383
 C367 C 0.84966 0.62710 1.20920
 C368 C 0.86594 0.63360 1.21954
 C369 C 0.87247 0.65018 1.20970
 H370 H 0.84069 0.61434 1.21265
 H371 H 0.88503 0.65926 1.21356
 Cu372 Cu 0.82659 0.63906 1.17334
 Cu373 Cu 0.86162 0.67427 1.17448
 Cu374 Cu 0.82541 0.67435 1.13824
 N375 N 0.80611 0.63955 1.15315
 N376 N 0.80576 0.65340 1.13946
 C377 C 0.79022 0.65033 1.12742
 C378 C 0.78041 0.63375 1.13399
 C379 C 0.79076 0.62721 1.15028
 H380 H 0.78636 0.65944 1.11484
 H381 H 0.78735 0.61444 1.15929
 N382 N 0.84655 0.69430 1.13950
 N383 N 0.86035 0.69426 1.15332
 C384 C 0.87257 0.70967 1.15023
 C385 C 0.86608 0.71974 1.13377
 C386 C 0.84964 0.70973 1.12726
 H387 H 0.88524 0.71333 1.15924
 H388 H 0.84065 0.71345 1.11457
 H389 H 0.83177 0.67433 1.16819
 H390 H 0.84789 0.65885 1.15198
 N391 N 0.86006 0.15308 0.69396
 N392 N 0.84636 0.13931 0.69365
 C393 C 0.84926 0.12688 0.70898
 C394 C 0.86558 0.13333 0.71928
 C395 C 0.87213 0.14991 0.70946
 H396 H 0.84023 0.11416 0.71246
 H397 H 0.88468 0.15900 0.71333
 Cu398 Cu 0.82605 0.13934 0.67332
 Cu399 Cu 0.86125 0.17417 0.67433
 Cu400 Cu 0.82499 0.17423 0.63803
 N401 N 0.80575 0.13938 0.65300
 N402 N 0.80542 0.15318 0.63926
 C403 C 0.78993 0.15005 0.62719
 C404 C 0.78015 0.13347 0.63378
 C405 C 0.79044 0.12698 0.65012
 H406 H 0.78605 0.15916 0.61461
 H407 H 0.78698 0.11426 0.65918
 N408 N 0.84609 0.19423 0.63935
 N409 N 0.85990 0.19420 0.65317
 C410 C 0.87211 0.20961 0.65007
 C411 C 0.86561 0.21966 0.63360
 C412 C 0.84917 0.20965 0.62710
 H413 H 0.88480 0.21327 0.65905
 H414 H 0.84020 0.21334 0.61438
 H415 H 0.83143 0.17455 0.66793
 H416 H 0.84741 0.15884 0.65187
 N417 N 1.34676 0.36002 0.69413
 N418 N 1.36040 0.34615 0.69399
 C419 C 1.37273 0.34906 0.70938
 C420 C 1.36639 0.36555 0.71952
 C421 C 1.34994 0.37219 0.70955
 H422 H 1.38537 0.33996 0.71295
 H423 H 1.34101 0.38493 0.71322
 Cu424 Cu 1.36063 0.32586 0.67356
 Cu425 Cu 1.32585 0.36129 0.67438
 Cu426 Cu 1.32583 0.32502 0.63813
 N427 N 1.36038 0.30541 0.65329
 N428 N 1.34674 0.30525 0.63941
 C429 C 1.34991 0.28981 0.62725
 C430 C 1.36636 0.27987 0.63394
 C431 C 1.37272 0.29002 0.65042
 H432 H 1.34097 0.28613 0.61452
 H433 H 1.38536 0.28647 0.65955
 N434 N 1.30590 0.34626 0.63935
 N435 N 1.30592 0.36007 0.65316
 C436 C 1.29052 0.37231 0.65009
 C437 C 1.28046 0.36582 0.63364
 C438 C 1.29048 0.34936 0.62713
 H439 H 1.28683 0.38498 0.65911
 H440 H 1.28676 0.34035 0.61446
 H441 H 1.32552 0.33147 0.66798
 H442 H 1.34133 0.34742 0.65196
 N443 N 1.34718 0.86013 1.19429
 N444 N 1.36097 0.84643 1.19397
 C445 C 1.37338 0.84935 1.20931
 C446 C 1.36689 0.86569 1.21961
 C447 C 1.35031 0.87223 1.20980
 H448 H 1.38611 0.84032 1.21276
 H449 H 1.34119 0.88479 1.21365
 Cu450 Cu 1.36098 0.82609 1.17357
 Cu451 Cu 1.32611 0.86130 1.17464
 Cu452 Cu 1.32611 0.82501 1.13833
 N453 N 1.36097 0.80570 1.15322
 N454 N 1.34718 0.80538 1.13951
 C455 C 1.35030 0.78989 1.12740
 C456 C 1.36688 0.78008 1.13396
 C457 C 1.37338 0.79037 1.15031
 H458 H 1.34119 0.78604 1.11484
 H459 H 1.38610 0.78692 1.15935
 N460 N 1.30608 0.84614 1.13966
 N461 N 1.30607 0.85996 1.15348
 C462 C 1.29065 0.87218 1.15038
 C463 C 1.28062 0.86567 1.13391
 C464 C 1.29067 0.84922 1.12742
 H465 H 1.28697 0.88487 1.15936
 H466 H 1.28700 0.84024 1.11471
 H467 H 1.32578 0.83143 1.16822
 H468 H 1.34141 0.84748 1.15213
 N469 N 0.84678 0.36033 1.19449
 N470 N 0.86043 0.34648 1.19432
 C471 C 0.87278 0.34936 1.20969
 C472 C 0.86648 0.36587 1.21982
 C473 C 0.85000 0.37253 1.20990
 H474 H 0.88545 0.34029 1.21320
 H475 H 0.84103 0.38522 1.21363
 Cu476 Cu 0.86074 0.32597 1.17411
 Cu477 Cu 0.82592 0.36152 1.17472
 Cu478 Cu 0.82592 0.32535 1.13853
 N479 N 0.86040 0.30578 1.15358
 N480 N 0.84675 0.30563 1.13973
 C481 C 0.84994 0.29024 1.12753
 C482 C 0.86640 0.28030 1.13416
 C483 C 0.87272 0.29041 1.15067
 H484 H 0.84097 0.28652 1.11484
 H485 H 0.88539 0.28687 1.15973
 N486 N 0.80602 0.34650 1.13973
 N487 N 0.80601 0.36030 1.15353
 C488 C 0.79058 0.37251 1.15043
 C489 C 0.78056 0.36599 1.13396
 C490 C 0.79062 0.34954 1.12749
 H491 H 0.78687 0.38517 1.15944
 H492 H 0.78694 0.34051 1.11482
 H493 H 0.82578 0.33154 1.16854
 H494 H 0.84178 0.34753 1.15250
 N495 N 0.84654 0.86042 0.69423
 N496 N 0.86018 0.84657 0.69402
 C497 C 0.87256 0.84944 0.70937
 C498 C 0.86626 0.86591 0.71956
 C499 C 0.84978 0.87258 0.70966
 H500 H 0.88518 0.84030 0.71287
 H501 H 0.84086 0.88531 0.71340
 Cu502 Cu 0.86035 0.82613 0.67377
 Cu503 Cu 0.82563 0.86162 0.67452
 Cu504 Cu 0.82561 0.82536 0.63827
 N505 N 0.86016 0.80587 0.65334
 N506 N 0.84652 0.80565 0.63949
 C507 C 0.84975 0.79022 0.62733
 C508 C 0.86623 0.78032 0.63401
 C509 C 0.87253 0.79052 0.65048
 H510 H 0.84082 0.78647 0.61460
 H511 H 0.88516 0.78703 0.65963
 N512 N 0.80568 0.84654 0.63953
 N513 N 0.80569 0.86036 0.65335
 C514 C 0.79030 0.87260 0.65025
 C515 C 0.78026 0.86611 0.63378
 C516 C 0.79028 0.84964 0.62729
 H517 H 0.78663 0.88529 0.65925
 H518 H 0.78661 0.84065 0.61460
 H519 H 0.82531 0.83172 0.66819
 H520 H 0.84121 0.84768 0.65218
 N521 N 0.65348 0.63964 0.69412
 N522 N 0.63980 0.65345 0.69390
 C523 C 0.62742 0.65053 0.70925
 C524 C 0.63378 0.63407 0.71944
 C525 C 0.65028 0.62746 0.70956
 H526 H 0.61474 0.65961 0.71279
 H527 H 0.65924 0.61476 0.71329
 Cu528 Cu 0.63981 0.67384 0.67360
 Cu529 Cu 0.67447 0.63839 0.67443
 Cu530 Cu 0.67447 0.67470 0.63812
 N531 N 0.63980 0.69415 0.65321
 N532 N 0.65349 0.69438 0.63938
 C533 C 0.65028 0.70982 0.62722
 C534 C 0.63378 0.71969 0.63385
 C535 C 0.62742 0.70949 0.65031
 H536 H 0.65924 0.71356 0.61451
 H537 H 0.61475 0.71301 0.65940
 N538 N 0.69443 0.65351 0.63940
 N539 N 0.69443 0.63969 0.65323
 C540 C 0.70981 0.62743 0.65013
 C541 C 0.71983 0.63394 0.63365
 C542 C 0.70982 0.65041 0.62715
 H543 H 0.71348 0.61473 0.65913
 H544 H 0.71350 0.65941 0.61443
 H545 H 0.67494 0.66825 0.66801
 H546 H 0.65908 0.65234 0.65205
 N547 N 0.65325 1.13945 1.19466
 N548 N 0.63958 1.15329 1.19446
 C549 C 0.62719 1.15038 1.20982
 C550 C 0.63353 1.13389 1.21998
 C551 C 0.65003 1.12725 1.21009
 H552 H 0.61458 1.15952 1.21339
 H553 H 0.65898 1.11454 1.21381
 Cu554 Cu 0.63962 1.17384 1.17427
 Cu555 Cu 0.67427 1.13826 1.17499
 Cu556 Cu 0.67429 1.17454 1.13868
 N557 N 0.63962 1.19402 1.15369
 N558 N 0.65330 1.19419 1.13986
 C559 C 0.65012 1.20961 1.12766
 C560 C 0.63365 1.21954 1.13426
 C561 C 0.62727 1.20938 1.15075
 H562 H 0.65909 1.21331 1.11494
 H563 H 0.61466 1.21299 1.15988
 N564 N 0.69428 1.15339 1.13998
 N565 N 0.69428 1.13956 1.15381
 C566 C 0.70969 1.12733 1.15070
 C567 C 0.71971 1.13385 1.13422
 C568 C 0.70968 1.15032 1.12773
 H569 H 0.71337 1.11462 1.15969
 H570 H 0.71335 1.15932 1.11502
 H571 H 0.67476 1.16812 1.16857
 H572 H 0.65884 1.15225 1.15265
 N573 N 0.15308 0.63972 1.19442
 N574 N 0.13945 0.65360 1.19428
 C575 C 0.12705 0.65065 1.20962
 C576 C 0.13338 0.63411 1.21975
 C577 C 0.14987 0.62750 1.20983
 H578 H 0.11443 0.65977 1.21318
 H579 H 0.15886 0.61481 1.21356
 Cu580 Cu 0.13948 0.67419 1.17407
 Cu581 Cu 0.17405 0.63855 1.17470
 Cu582 Cu 0.17406 0.67487 1.13841
 N583 N 0.13947 0.69442 1.15350
 N584 N 0.15310 0.69458 1.13961
 C585 C 0.14989 0.71000 1.12740
 C586 C 0.13341 0.71991 1.13404
 C587 C 0.12708 0.70976 1.15057
 H588 H 0.15889 0.71375 1.11471
 H589 H 0.11445 0.71330 1.15971
 N590 N 0.19404 0.65369 1.13968
 N591 N 0.19403 0.63985 1.15350
 C592 C 0.20944 0.62763 1.15042
 C593 C 0.21949 0.63414 1.13394
 C594 C 0.20945 0.65062 1.12744
 H595 H 0.21313 0.61494 1.15943
 H596 H 0.21314 0.65964 1.11476
 H597 H 0.17456 0.66843 1.16830
 H598 H 0.15853 0.65260 1.15241
 N599 N 0.15298 1.13976 0.69478
 N600 N 0.13946 1.15376 0.69472
 C601 C 0.12711 1.15089 0.71012
 C602 C 0.13336 1.13429 0.72017
 C603 C 0.14973 1.12753 0.71017
 H604 H 0.11456 1.16009 0.71374
 H605 H 0.15857 1.11470 0.71377
 Cu606 Cu 0.13948 1.17413 0.67435
 Cu607 Cu 0.17385 1.13841 0.67497
 Cu608 Cu 0.17385 1.17472 0.63861
 N609 N 0.13945 1.19449 0.65395
 N610 N 0.15296 1.19454 0.63994
 C611 C 0.14970 1.20992 0.62770
 C612 C 0.13332 1.21992 0.63446
 C613 C 0.12709 1.20986 0.65108
 H614 H 0.15854 1.21352 0.61486
 H615 H 0.11455 1.21348 0.66031
 N616 N 0.19372 1.15342 0.63982
 N617 N 0.19372 1.13960 0.65366
 C618 C 0.20911 1.12736 0.65058
 C619 C 0.21914 1.13384 0.63410
 C620 C 0.20912 1.15031 0.62757
 H621 H 0.21282 1.11470 0.65963
 H622 H 0.21285 1.15934 0.61490
 H623 H 0.17448 1.16822 0.66846
 H624 H 0.15837 1.15242 0.65264
 N625 N 1.34684 0.64006 0.30600
 N626 N 1.36049 0.65390 0.30615
 C627 C 1.37284 0.65097 0.29078
 C628 C 1.36648 0.63450 0.28062
 C629 C 1.35002 0.62789 0.29058
 H630 H 1.38546 0.66007 0.28719
 H631 H 1.34106 0.61520 0.28686
 Cu632 Cu 1.36064 0.67434 0.32643
 Cu633 Cu 1.32591 0.63882 0.32572
 Cu634 Cu 1.32585 0.67503 0.36197
 N635 N 1.36044 0.69461 0.34689
 N636 N 1.34678 0.69477 0.36074
 C637 C 1.34993 0.71020 0.37292
 C638 C 1.36640 0.72012 0.36627
 C639 C 1.37278 0.70997 0.34979
 H640 H 1.34095 0.71390 0.38563
 H641 H 1.38541 0.71353 0.34066
 N642 N 1.30591 0.65382 0.36073
 N643 N 1.30595 0.64002 0.34690
 C644 C 1.29057 0.62776 0.34997
 C645 C 1.28050 0.63422 0.36644
 C646 C 1.29050 0.65069 0.37296
 H647 H 1.28692 0.61509 0.34094
 H648 H 1.28677 0.65967 0.38565
 H649 H 1.32549 0.66865 0.33208
 H650 H 1.34136 0.65274 0.34803
 N651 N 1.34667 1.13964 0.80567
 N652 N 1.36047 1.15330 0.80601
 C653 C 1.37282 1.15043 0.79063
 C654 C 1.36630 1.13416 0.78029
 C655 C 1.34974 1.12761 0.79011
 H656 H 1.38556 1.15941 0.78719
 H657 H 1.34065 1.11506 0.78623
 Cu658 Cu 1.36096 1.17346 0.82649
 Cu659 Cu 1.32574 1.13843 0.82533
 Cu660 Cu 1.32574 1.17466 0.86158
 N661 N 1.36048 1.19395 0.84667
 N662 N 1.34668 1.19431 0.86036
 C663 C 1.34977 1.20986 0.87239
 C664 C 1.36633 1.21966 0.86580
 C665 C 1.37283 1.20930 0.84951
 H666 H 1.34068 1.21376 0.88495
 H667 H 1.38558 1.21271 0.84050
 N668 N 1.30580 1.15350 0.86032
 N669 N 1.30581 1.13970 0.84650
 C670 C 1.29042 1.12747 0.84957
 C671 C 1.28038 1.13396 0.86603
 C672 C 1.29039 1.15041 0.87255
 H673 H 1.28675 1.11480 0.84056
 H674 H 1.28669 1.15941 0.88525
 H675 H 1.32572 1.16832 0.83163
 H676 H 1.34116 1.15215 0.84783
 N677 N 0.84676 0.63964 0.80585
 N678 N 0.86056 0.65331 0.80618
 C679 C 0.87292 0.65042 0.79081
 C680 C 0.86642 0.63412 0.78048
 C681 C 0.84986 0.62758 0.79032
 H682 H 0.88566 0.65941 0.78737
 H683 H 0.84079 0.61501 0.78646
 Cu684 Cu 0.86099 0.67351 0.82667
 Cu685 Cu 0.82581 0.63845 0.82552
 Cu686 Cu 0.82578 0.67470 0.86176
 N687 N 0.86054 0.69401 0.84686
 N688 N 0.84672 0.69436 0.86055
 C689 C 0.84981 0.70990 0.87259
 C690 C 0.86637 0.71971 0.86603
 C691 C 0.87288 0.70936 0.84973
 H692 H 0.84073 0.71376 0.88518
 H693 H 0.88562 0.71278 0.84072
 N694 N 0.80583 0.65355 0.86050
 N695 N 0.80585 0.63974 0.84668
 C696 C 0.79045 0.62752 0.84977
 C697 C 0.78040 0.63402 0.86623
 C698 C 0.79042 0.65047 0.87273
 H699 H 0.78678 0.61483 0.84077
 H700 H 0.78673 0.65947 0.88542
 H701 H 0.82576 0.66834 0.83182
 H702 H 0.84123 0.65218 0.84803
 N703 N 0.84661 1.13942 0.30566
 N704 N 0.86028 1.15322 0.30588
 C705 C 0.87265 1.15033 0.29052
 C706 C 0.86628 1.13390 0.28033
 C707 C 0.84980 1.12727 0.29022
 H708 H 0.88528 1.15943 0.28697
 H709 H 0.84086 1.11458 0.28648
 Cu710 Cu 0.86044 1.17362 0.32612
 Cu711 Cu 0.82567 1.13819 0.32533
 Cu712 Cu 0.82565 1.17443 0.36159
 N713 N 0.86027 1.19386 0.34654
 N714 N 0.84659 1.19409 0.36036
 C715 C 0.84979 1.20952 0.37251
 C716 C 0.86628 1.21940 0.36585
 C717 C 0.87264 1.20919 0.34941
 H718 H 0.84084 1.21327 0.38522
 H719 H 0.88527 1.21272 0.34028
 N720 N 0.80571 1.15327 0.36032
 N721 N 0.80573 1.13946 0.34649
 C722 C 0.79034 1.12723 0.34957
 C723 C 0.78030 1.13372 0.36604
 C724 C 0.79031 1.15017 0.37255
 H725 H 0.78667 1.11455 0.34056
 H726 H 0.78661 1.15916 0.38525
 H727 H 0.82534 1.16805 0.33167
 H728 H 0.84117 1.15207 0.34768
 N729 N 0.65306 0.35997 0.30561
 N730 N 0.63939 0.34615 0.30581
 C731 C 0.62703 0.34905 0.29043
 C732 C 0.63341 0.36550 0.28022
 C733 C 0.64990 0.37212 0.29012
 H734 H 0.61436 0.33998 0.28693
 H735 H 0.65889 0.38479 0.28637
 Cu736 Cu 0.63913 0.32586 0.32629
 Cu737 Cu 0.67396 0.36120 0.32538
 Cu738 Cu 0.67396 0.32491 0.36169
 N739 N 0.63939 0.30539 0.34660
 N740 N 0.65306 0.30518 0.36044
 C741 C 0.64991 0.28971 0.37260
 C742 C 0.63343 0.27982 0.36595
 C743 C 0.62704 0.29003 0.34948
 H744 H 0.65890 0.28595 0.38528
 H745 H 0.61437 0.28654 0.34040
 N746 N 0.69388 0.34612 0.36047
 N747 N 0.69388 0.35995 0.34663
 C748 C 0.70930 0.37215 0.34971
 C749 C 0.71935 0.36563 0.36619
 C750 C 0.70930 0.34918 0.37270
 H751 H 0.71302 0.38481 0.34067
 H752 H 0.71300 0.34013 0.38537
 H753 H 0.67428 0.33131 0.33177
 H754 H 0.65853 0.34731 0.34779
 N755 N 0.65355 0.86051 0.80574
 N756 N 0.64006 0.84652 0.80580
 C757 C 0.62771 0.84938 0.79043
 C758 C 0.63389 0.86598 0.78037
 C759 C 0.65025 0.87274 0.79037
 H760 H 0.61517 0.84018 0.78681
 H761 H 0.65905 0.88559 0.78675
 Cu762 Cu 0.64009 0.82617 0.82614
 Cu763 Cu 0.67442 0.86187 0.82554
 Cu764 Cu 0.67445 0.82553 0.86186
 N765 N 0.64009 0.80581 0.84648
 N766 N 0.65359 0.80574 0.86049
 C767 C 0.65031 0.79035 0.87270
 C768 C 0.63396 0.78036 0.86592
 C769 C 0.62776 0.79044 0.84932
 H770 H 0.65912 0.78672 0.88555
 H771 H 0.61522 0.78684 0.84010
 N772 N 0.69428 0.84683 0.86066
 N773 N 0.69427 0.86066 0.84683
 C774 C 0.70965 0.87290 0.84992
 C775 C 0.71968 0.86639 0.86640
 C776 C 0.70967 0.84991 0.87291
 H777 H 0.71335 0.88556 0.84088
 H778 H 0.71340 0.84088 0.88558
 H779 H 0.67506 0.83206 0.83200
 H780 H 0.65894 0.84785 0.84785
 N781 N 0.15321 0.36018 0.80602
 N782 N 0.13943 0.34648 0.80636
 C783 C 0.12703 0.34940 0.79103
 C784 C 0.13350 0.36574 0.78070
 C785 C 0.15006 0.37227 0.79050
 H786 H 0.11432 0.34038 0.78757
 H787 H 0.15915 0.38482 0.78660
 Cu788 Cu 0.13943 0.32614 0.82675
 Cu789 Cu 0.17426 0.36136 0.82563
 Cu790 Cu 0.17429 0.32505 0.86198
 N791 N 0.13945 0.30576 0.84711
 N792 N 0.15324 0.30541 0.86083
 C793 C 0.15010 0.28990 0.87294
 C794 C 0.13352 0.28012 0.86637
 C795 C 0.12704 0.29045 0.85001
 H796 H 0.15920 0.28601 0.88551
 H797 H 0.11433 0.28702 0.84096
 N798 N 0.19431 0.34620 0.86061
 N799 N 0.19428 0.36001 0.84676
 C800 C 0.20967 0.37225 0.84980
 C801 C 0.21973 0.36577 0.86627
 C802 C 0.20973 0.34930 0.87282
 H803 H 0.21332 0.38495 0.84078
 H804 H 0.21342 0.34033 0.88554
 H805 H 0.17462 0.33150 0.83207
 H806 H 0.15897 0.34753 0.84813
 N807 N 0.15322 0.85973 0.30614
 N808 N 0.13957 0.84590 0.30636
 C809 C 0.12722 0.84878 0.29098
 C810 C 0.13358 0.86521 0.28075
 C811 C 0.15003 0.87187 0.29066
 H812 H 0.11459 0.83967 0.28746
 H813 H 0.15898 0.88456 0.28690
 Cu814 Cu 0.13930 0.82563 0.32680
 Cu815 Cu 0.17410 0.86099 0.32589
 Cu816 Cu 0.17414 0.82468 0.36218
 N817 N 0.13960 0.80517 0.34705
 N818 N 0.15327 0.80493 0.36090
 C819 C 0.15011 0.78944 0.37302
 C820 C 0.13365 0.77956 0.36632
 C821 C 0.12726 0.78980 0.34988
 H822 H 0.15907 0.78566 0.38573
 H823 H 0.11463 0.78632 0.34075
 N824 N 0.19402 0.84592 0.36095
 N825 N 0.19399 0.85974 0.34712
 C826 C 0.20936 0.87200 0.35021
 C827 C 0.21939 0.86550 0.36669
 C828 C 0.20940 0.84902 0.37320
 H829 H 0.21302 0.88468 0.34119
 H830 H 0.21311 0.84001 0.38589
 H831 H 0.17442 0.83108 0.33224
 H832 H 0.15865 0.84707 0.34829
 O833 O 0.98077 0.92872 0.90157
 O834 O 0.98079 0.90569 0.87849
 C835 C 0.97393 0.92168 0.88555
 C836 C 0.95734 0.93179 0.87546
 C837 C 0.94913 0.92381 0.85812
 H838 H 0.95542 0.91063 0.85152
 O839 O 1.01939 1.07170 0.90135
 O840 O 1.01934 1.09474 0.87824
 C841 C 1.02620 1.07874 0.88530
 C842 C 1.04276 1.06861 0.87520
 C843 C 1.05096 1.07657 0.85782
 H844 H 1.04467 1.08975 0.85120
 O845 O 0.90158 0.98082 0.92856
 O846 O 0.87857 0.98086 0.90547
 C847 C 0.88559 0.97401 0.92151
 C848 C 0.87548 0.95745 0.93167
 C849 C 0.85813 0.94928 0.92374
 H850 H 0.85153 0.95558 0.91055
 O851 O 1.09847 1.01957 0.92842
 O852 O 1.12150 1.01951 0.90535
 C853 C 1.11448 1.02637 0.92137
 C854 C 1.12460 1.04291 0.93150
 C855 C 1.14195 1.05106 0.92355
 H856 H 1.14854 1.04478 0.91036
 O857 O 0.92860 0.90172 0.98068
 O858 O 0.90564 0.87863 0.98072
 C859 C 0.92160 0.88570 0.97385
 C860 C 0.93174 0.87561 0.95726
 C861 C 0.92381 0.85827 0.94904
 H862 H 0.91063 0.85168 0.95530
 O863 O 1.07160 1.09864 0.98045
 O864 O 1.09459 1.12170 0.98047
 C865 C 1.07862 1.11466 0.97359
 C866 C 1.06851 1.12478 0.95697
 C867 C 1.07645 1.14214 0.94873
 H868 H 1.08962 1.14872 0.95501
 O869 O 0.92872 1.01945 0.90156
 O870 O 0.90574 1.01950 0.87844
 C871 C 0.92171 1.02633 0.88553
 C872 C 0.93182 1.04293 0.87543
 C873 C 0.92385 1.05112 0.85807
 H874 H 0.91070 1.04483 0.85147
 O875 O 1.07138 0.98095 0.90146
 O876 O 1.09439 0.98088 0.87836
 C877 C 1.07840 0.97407 0.88545
 C878 C 1.06829 0.95747 0.87539
 C879 C 1.07625 0.94926 0.85803
 H880 H 1.08940 0.95554 0.85141
 O881 O 1.01942 0.90170 0.92865
 O882 O 1.01945 0.87865 0.90559
 C883 C 1.02629 0.88571 0.92160
 C884 C 1.04288 0.87564 0.93172
 C885 C 1.05110 0.85831 0.92374
 H886 H 1.04484 0.85172 0.91054
 O887 O 0.98082 1.09872 0.92850
 O888 O 0.98074 1.12178 0.90542
 C889 C 0.97393 1.11471 0.92145
 C890 C 0.95734 1.12475 0.93160
 C891 C 0.94911 1.14209 0.92365
 H892 H 0.95535 1.14873 0.91045
 O893 O 0.90167 1.07149 0.98073
 O894 O 0.87867 1.09457 0.98072
 C895 C 0.88569 1.07856 0.97387
 C896 C 0.87562 1.06847 0.95727
 C897 C 0.85829 1.07644 0.94907
 H898 H 0.85170 1.08961 0.95536
 O899 O 1.09841 0.92868 0.98091
 O900 O 1.12146 0.90565 0.98079
 C901 C 1.11438 0.92168 0.97399
 C902 C 1.12441 0.93186 0.95738
 C903 C 1.14176 0.92396 0.94916
 H904 H 1.14839 0.91079 0.95545
 O905 O 0.98079 1.07168 0.90145
 O906 O 0.98071 1.09471 0.87833
 C907 C 0.97390 1.07870 0.88543
 C908 C 0.95733 1.06855 0.87538
 C909 C 0.94910 1.07650 0.85801
 H910 H 0.95533 1.08968 0.85137
 O911 O 1.01937 0.92876 0.90156
 O912 O 1.01940 0.90574 0.87848
 C913 C 1.02622 0.92174 0.88554
 C914 C 1.04277 0.93188 0.87543
 C915 C 1.05097 0.92392 0.85807
 H916 H 1.04471 0.91074 0.85147
 O917 O 1.09831 0.98094 0.92860
 O918 O 1.12134 0.98087 0.90553
 C919 C 1.11429 0.97406 0.92157
 C920 C 1.12436 0.95748 0.93175
 C921 C 1.14171 0.94932 0.92380
 H922 H 1.14830 0.95562 0.91061
 O923 O 0.90165 1.01946 0.92857
 O924 O 0.87865 1.01952 0.90548
 C925 C 0.88568 1.02633 0.92151
 C926 C 0.87562 1.04291 0.93165
 C927 C 0.85828 1.05112 0.92370
 H928 H 0.85168 1.04485 0.91052
 O929 O 0.92869 1.09851 0.98068
 O930 O 0.90571 1.12161 0.98070
 C931 C 0.92168 1.11454 0.97383
 C932 C 0.93179 1.12466 0.95723
 C933 C 0.92382 1.14201 0.94904
 H934 H 0.91066 1.14860 0.95534
 O935 O 1.07149 0.90158 0.98091
 O936 O 1.09451 0.87853 0.98081
 C937 C 1.07852 0.88561 0.97399
 C938 C 1.06843 0.87560 0.95735
 C939 C 1.07640 0.85828 0.94910
 H940 H 1.08957 0.85167 0.95537
 O941 O 1.07141 1.01961 0.90139
 O942 O 1.09441 1.01957 0.87830
 C943 C 1.07844 1.02644 0.88536
 C944 C 1.06834 1.04304 0.87523
 C945 C 1.07629 1.05126 0.85786
 H946 H 1.08947 1.04499 0.85127
 O947 O 0.92865 0.98079 0.90154
 O948 O 0.90567 0.98081 0.87843
 C949 C 0.92164 0.97394 0.88552
 C950 C 0.93175 0.95734 0.87544
 C951 C 0.92379 0.94911 0.85810
 H952 H 0.91061 0.95537 0.85150
 O953 O 1.01945 1.09877 0.92839
 O954 O 1.01939 1.12183 0.90531
 C955 C 1.02628 1.11477 0.92131
 C956 C 1.04290 1.12484 0.93140
 C957 C 1.05109 1.14219 0.92342
 H958 H 1.04478 1.14882 0.91024
 O959 O 0.98080 0.90165 0.92865
 O960 O 0.98082 0.87860 0.90559
 C961 C 0.97396 0.88565 0.92160
 C962 C 0.95737 0.87557 0.93172
 C963 C 0.94920 0.85823 0.92375
 H964 H 0.95551 0.85161 0.91059
 O965 O 1.09858 1.07155 0.98055
 O966 O 1.12160 1.09458 0.98055
 C967 C 1.11457 1.07858 0.97371
 C968 C 1.12465 1.06845 0.95713
 C969 C 1.14200 1.07636 0.94894
 H970 H 1.14862 1.08951 0.95523
 O971 O 0.90157 0.92876 0.98072
 O972 O 0.87858 0.90570 0.98075
 C973 C 0.88559 0.92172 0.97389
 C974 C 0.87548 0.93186 0.95731
 C975 C 0.85814 0.92394 0.94913
 H976 H 0.85154 0.91077 0.95544
 Cu977 Cu 1.00008 0.91751 0.91743
 Cu978 Cu 1.00012 0.88986 0.88973
 Cu979 Cu 1.00013 1.08291 0.91725
 Cu980 Cu 1.00004 1.11058 0.88951
 Cu981 Cu 0.91746 1.00012 0.91738
 Cu982 Cu 0.88986 1.00018 0.88963
 Cu983 Cu 1.08258 1.00028 0.91728
 Cu984 Cu 1.11022 1.00020 0.88957
 C985 C 0.94865 0.94868 0.88390
 H986 H 0.95466 0.95472 0.89746
 C987 C 0.93243 0.93241 0.84951
 C988 C 1.05144 1.05171 0.88367
 H989 H 1.04543 1.04569 0.89725
 C990 C 1.06765 1.06795 0.84922
 C991 C 0.88392 0.94876 0.94859
 H992 H 0.89747 0.95475 0.95459
 C993 C 0.84954 0.93260 0.93242
 C994 C 1.11618 1.05159 0.94843
 H995 H 1.10262 1.04560 0.95444
 C996 C 1.15057 1.06771 0.93222
 C997 C 0.94865 0.88404 0.94860
 H998 H 0.95464 0.89760 0.95462
 C999 C 0.93249 0.84965 0.93236
 C1000 C 1.05161 1.11636 0.94830
 H1001 H 1.04561 1.10280 0.95433
 C1002 C 1.06780 1.15078 0.93202
 C1003 C 0.94869 1.05164 0.88387
 H1004 H 0.95472 1.04563 0.89745
 C1005 C 0.93243 1.06783 0.84944
 C1006 C 1.05142 0.94879 0.88386
 H1007 H 1.04541 0.95481 0.89744
 C1008 C 1.06764 0.93256 0.84945
 C1009 C 1.05155 0.88406 0.94865
 H1010 H 1.04553 0.89761 0.95469
 C1011 C 1.06779 0.84971 0.93237
 C1012 C 0.94868 1.11625 0.94852
 H1013 H 0.95471 1.10268 0.95453
 C1014 C 0.93242 1.15066 0.93232
 C1015 C 0.88406 1.05158 0.94857
 H1016 H 0.89761 1.04555 0.95458
 C1017 C 0.84970 1.06781 0.93236
 C1018 C 1.11593 0.94876 0.94868
 H1019 H 1.10237 0.95475 0.95469
 C1020 C 1.15032 0.93263 0.93245
 O1021 O 1.01942 0.92865 1.09873
 O1022 O 1.01941 0.90559 1.12182
 C1023 C 1.02625 0.92160 1.11476
 C1024 C 1.04283 0.93169 1.12484
 C1025 C 1.05100 0.92372 1.14222
 H1026 H 1.04469 0.91056 1.14885
 O1027 O 0.98091 1.07129 1.09845
 O1028 O 0.98091 1.09430 1.12155
 C1029 C 0.97408 1.07830 1.11448
 C1030 C 0.95753 1.06818 1.12459
 C1031 C 0.94936 1.07616 1.14195
 H1032 H 0.95564 1.08934 1.14854
 O1033 O 0.90162 1.01935 1.07168
 O1034 O 0.87862 1.01939 1.09478
 C1035 C 0.88565 1.02624 1.07875
 C1036 C 0.87559 1.04287 1.06861
 C1037 C 0.85825 1.05108 1.07654
 H1038 H 0.85163 1.04479 1.08974
 O1039 O 1.09874 0.98057 1.07156
 O1040 O 1.12174 0.98059 1.09465
 C1041 C 1.11473 0.97373 1.07863
 C1042 C 1.12481 0.95715 1.06852
 C1043 C 1.14216 0.94895 1.07646
 H1044 H 1.14877 0.95523 1.08964
 O1045 O 1.07156 0.90147 1.01966
 O1046 O 1.09458 0.87841 1.01958
 C1047 C 1.07862 0.88545 1.02650
 C1048 C 1.06855 0.87534 1.04315
 C1049 C 1.07651 0.85798 1.05137
 H1050 H 1.08966 0.85138 1.04506
 O1051 O 0.92874 1.09845 1.01937
 O1052 O 0.90576 1.12155 1.01941
 C1053 C 0.92174 1.11446 1.02623
 C1054 C 0.93189 1.12452 1.04281
 C1055 C 0.92395 1.14186 1.05104
 H1056 H 0.91078 1.14848 1.04478
 O1057 O 0.92861 0.98056 1.09871
 O1058 O 0.90564 0.98060 1.12184
 C1059 C 0.92159 0.97371 1.11476
 C1060 C 0.93170 0.95710 1.12488
 C1061 C 0.92374 0.94889 1.14226
 H1062 H 0.91058 0.95518 1.14886
 O1063 O 1.07157 1.01917 1.09848
 O1064 O 1.09454 1.01920 1.12160
 C1065 C 1.07856 1.02602 1.11451
 C1066 C 1.06840 1.04257 1.12459
 C1067 C 1.07634 1.05075 1.14194
 H1068 H 1.08951 1.04448 1.14856
 O1069 O 0.98090 0.90165 1.07157
 O1070 O 0.98085 0.87856 1.09463
 C1071 C 0.97404 0.88564 1.07860
 C1072 C 0.95747 0.87560 1.06844
 C1073 C 0.94929 0.85824 1.07639
 H1074 H 0.95557 0.85160 1.08957
 O1075 O 1.01948 1.09839 1.07139
 O1076 O 1.01949 1.12141 1.09447
 C1077 C 1.02631 1.11438 1.07844
 C1078 C 1.04285 1.12450 1.06829
 C1079 C 1.05102 1.14184 1.07626
 H1080 H 1.04476 1.14841 1.08947
 O1081 O 0.90157 0.92870 1.01941
 O1082 O 0.87858 0.90564 1.01946
 C1083 C 0.88560 0.92165 1.02629
 C1084 C 0.87552 0.93177 1.04289
 C1085 C 0.85817 0.92386 1.05109
 H1086 H 0.85156 0.91070 1.04479
 O1087 O 1.09853 1.07154 1.01925
 O1088 O 1.12156 1.09457 1.01928
 C1089 C 1.11450 1.07856 1.02614
 C1090 C 1.12456 1.06842 1.04278
 C1091 C 1.14189 1.07636 1.05099
 H1092 H 1.14849 1.08954 1.04470
 O1093 O 1.01949 1.07130 1.09845
 O1094 O 1.01950 1.09430 1.12155
 C1095 C 1.02632 1.07831 1.11448
 C1096 C 1.04286 1.06815 1.12457
 C1097 C 1.05105 1.07609 1.14194
 H1098 H 1.04479 1.08928 1.14854
 O1099 O 0.98079 0.92847 1.09885
 O1100 O 0.98076 0.90541 1.12194
 C1101 C 0.97391 0.92141 1.11486
 C1102 C 0.95728 0.93151 1.12494
 C1103 C 0.94906 0.92355 1.14231
 H1104 H 0.95533 0.91037 1.14894
 O1105 O 1.09861 1.01925 1.07145
 O1106 O 1.12161 1.01929 1.09454
 C1107 C 1.11456 1.02614 1.07851
 C1108 C 1.12459 1.04278 1.06839
 C1109 C 1.14190 1.05099 1.07635
 H1110 H 1.14852 1.04468 1.08953
 O1111 O 0.90164 0.98069 1.07159
 O1112 O 0.87864 0.98071 1.09468
 C1113 C 0.88565 0.97387 1.07865
 C1114 C 0.87554 0.95733 1.06850
 C1115 C 0.85819 0.94918 1.07645
 H1116 H 0.85159 0.95547 1.08964
 O1117 O 1.07148 1.09854 1.01917
 O1118 O 1.09447 1.12160 1.01921
 C1119 C 1.07849 1.11453 1.02604
 C1120 C 1.06837 1.12457 1.04265
 C1121 C 1.07629 1.14191 1.05087
 H1122 H 1.08944 1.14853 1.04458
 O1123 O 0.92872 0.90179 1.01939
 O1124 O 0.90576 0.87870 1.01944
 C1125 C 0.92174 0.88577 1.02627
 C1126 C 0.93189 0.87568 1.04286
 C1127 C 0.92396 0.85831 1.05106
 H1128 H 0.91080 0.85172 1.04478
 O1129 O 1.07165 0.98054 1.09857
 O1130 O 1.09462 0.98056 1.12169
 C1131 C 1.07864 0.97372 1.11463
 C1132 C 1.06848 0.95717 1.12477
 C1133 C 1.07640 0.94895 1.14216
 H1134 H 1.08958 0.95518 1.14876
 O1135 O 0.92878 1.01922 1.09858
 O1136 O 0.90581 1.01929 1.12171
 C1137 C 0.92179 1.02609 1.11460
 C1138 C 0.93195 1.04265 1.12465
 C1139 C 0.92402 1.05089 1.14200
 H1140 H 0.91084 1.04466 1.14862
 O1141 O 0.98089 1.09839 1.07142
 O1142 O 0.98089 1.12142 1.09450
 C1143 C 0.97405 1.11438 1.07848
 C1144 C 0.95747 1.12448 1.06837
 C1145 C 0.94929 1.14182 1.07637
 H1146 H 0.95558 1.14839 1.08956
 O1147 O 1.01953 0.90144 1.07184
 O1148 O 1.01949 0.87835 1.09489
 C1149 C 1.02638 0.88542 1.07889
 C1150 C 1.04299 0.87533 1.06878
 C1151 C 1.05120 0.85797 1.07675
 H1152 H 1.04492 0.85134 1.08994
 O1153 O 1.09861 0.92848 1.01959
 O1154 O 1.12166 0.90546 1.01950
 C1155 C 1.11463 0.92145 1.02638
 C1156 C 1.12477 0.93157 1.04293
 C1157 C 1.14212 0.92362 1.05110
 H1158 H 1.14872 0.91045 1.04480
 O1159 O 0.90165 1.07150 1.01945
 O1160 O 0.87865 1.09457 1.01945
 C1161 C 0.88568 1.07856 1.02632
 C1162 C 0.87560 1.06845 1.04295
 C1163 C 0.85826 1.07640 1.05113
 H1164 H 0.85166 1.08957 1.04481
 Cu1165 Cu 1.00017 0.91736 1.08293
 Cu1166 Cu 1.00012 0.88967 1.11063
 Cu1167 Cu 1.00019 1.08253 1.08260
 Cu1168 Cu 1.00020 1.11017 1.11034
 Cu1169 Cu 0.91742 0.91756 1.00004
 Cu1170 Cu 0.88984 0.88985 1.00010
 Cu1171 Cu 1.08270 0.91736 1.00029
 Cu1172 Cu 1.11035 0.88970 1.00016
 Cu1173 Cu 0.91749 1.08267 1.00006
 Cu1174 Cu 0.88989 1.11039 1.00007
 Cu1175 Cu 1.08274 1.08276 0.99984
 Cu1176 Cu 1.11036 1.11042 0.99988
 Cu1177 Cu 0.91746 0.99995 1.08282
 Cu1178 Cu 0.88988 1.00000 1.11057
 Cu1179 Cu 1.08285 0.99987 1.08269
 Cu1180 Cu 1.11044 0.99991 1.11043
 C1181 C 1.05156 0.94856 1.11635
 H1182 H 1.04555 0.95459 1.10277
 C1183 C 1.06771 0.93229 1.15081
 C1184 C 0.94884 1.05129 1.11617
 H1185 H 0.95484 1.04525 1.10259
 C1186 C 0.93268 1.06757 1.15057
 C1187 C 0.88404 1.05155 1.05168
 H1188 H 0.89759 1.04554 1.04568
 C1189 C 0.84965 1.06777 1.06786
 C1190 C 1.11635 0.94847 1.05163
 H1191 H 1.10279 0.95448 1.04563
 C1192 C 1.15075 0.93226 1.06779
 C1193 C 1.05167 0.88378 1.05186
 H1194 H 1.04565 0.89735 1.04583
 C1195 C 1.06789 0.84935 1.06810
 C1196 C 0.94878 1.11606 1.05146
 H1197 H 0.95478 1.10250 1.04542
 C1198 C 0.93260 1.15043 1.06775
 C1199 C 0.94860 0.94841 1.11645
 H1200 H 0.95463 0.95444 1.10288
 C1201 C 0.93236 0.93218 1.15091
 C1202 C 1.05153 1.05125 1.11612
 H1203 H 1.04552 1.04524 1.10255
 C1204 C 1.06771 1.06744 1.15054
 C1205 C 0.94878 0.88410 1.05154
 H1206 H 0.95477 0.89768 1.04554
 C1207 C 0.93261 0.84967 1.06775
 C1208 C 1.05152 1.11609 1.05136
 H1209 H 1.04553 1.10252 1.04533
 C1210 C 1.06767 1.15046 1.06760
 C1211 C 0.88398 0.94864 1.05159
 H1212 H 0.89754 0.95463 1.04558
 C1213 C 0.84957 0.93251 1.06779
 C1214 C 1.11613 1.05151 1.05147
 H1215 H 1.10259 1.04550 1.04546
 C1216 C 1.15048 1.06770 1.06771
 O1217 O 0.98064 0.42819 0.40118
 O1218 O 0.98074 0.40515 0.37812
 C1219 C 0.97383 0.42112 0.38516
 C1220 C 0.95719 0.43117 0.37505
 C1221 C 0.94899 0.42317 0.35771
 H1222 H 0.95530 0.41000 0.35112
 O1223 O 1.01965 0.57132 0.40127
 O1224 O 1.01956 0.59434 0.37815
 C1225 C 1.02648 0.57837 0.38523
 C1226 C 1.04311 0.56830 0.37514
 C1227 C 1.05133 0.57630 0.35778
 H1228 H 1.04503 0.58948 0.35117
 O1229 O 0.90146 0.48021 0.42827
 O1230 O 0.87848 0.48034 0.40517
 C1231 C 0.88547 0.47343 0.42119
 C1232 C 0.87534 0.45686 0.43132
 C1233 C 0.85800 0.44866 0.42337
 H1234 H 0.85141 0.45495 0.41017
 O1235 O 1.09867 0.51911 0.42852
 O1236 O 1.12169 0.51909 0.40545
 C1237 C 1.11465 0.52595 0.42147
 C1238 C 1.12472 0.54254 0.43159
 C1239 C 1.14208 0.55071 0.42365
 H1240 H 1.14871 0.54440 0.41049
 O1241 O 0.92855 0.40131 0.48045
 O1242 O 0.90560 0.37822 0.48052
 C1243 C 0.92156 0.38528 0.47364
 C1244 C 0.93172 0.37517 0.45707
 C1245 C 0.92381 0.35782 0.44886
 H1246 H 0.91063 0.35122 0.45511
 O1247 O 1.07153 0.59843 0.48049
 O1248 O 1.09453 0.62148 0.48049
 C1249 C 1.07856 0.61444 0.47363
 C1250 C 1.06844 0.62453 0.45702
 C1251 C 1.07635 0.64189 0.44880
 H1252 H 1.08950 0.64851 0.45508
 O1253 O 0.92878 0.51883 0.40141
 O1254 O 0.90583 0.51900 0.37828
 C1255 C 0.92181 0.52578 0.38540
 C1256 C 0.93196 0.54240 0.37537
 C1257 C 0.92401 0.55066 0.35803
 H1258 H 0.91085 0.54440 0.35140
 O1259 O 1.07151 0.48054 0.40152
 O1260 O 1.09451 0.48048 0.37842
 C1261 C 1.07852 0.47367 0.38550
 C1262 C 1.06839 0.45709 0.37542
 C1263 C 1.07636 0.44888 0.35808
 H1264 H 1.08954 0.45514 0.35148
 O1265 O 1.01931 0.40126 0.42839
 O1266 O 1.01940 0.37820 0.40535
 C1267 C 1.02620 0.38527 0.42137
 C1268 C 1.04278 0.37519 0.43154
 C1269 C 1.05099 0.35785 0.42358
 H1270 H 1.04474 0.35125 0.41038
 O1271 O 0.98096 0.59827 0.42840
 O1272 O 0.98087 0.62133 0.40531
 C1273 C 0.97407 0.61427 0.42135
 C1274 C 0.95749 0.62435 0.43151
 C1275 C 0.94931 0.64173 0.42357
 H1276 H 0.95559 0.64837 0.41039
 O1277 O 0.90172 0.57116 0.48054
 O1278 O 0.87870 0.59421 0.48048
 C1279 C 0.88575 0.57820 0.47364
 C1280 C 0.87569 0.56808 0.45702
 C1281 C 0.85833 0.57602 0.44882
 H1282 H 0.85173 0.58919 0.45511
 O1283 O 1.09858 0.42808 0.48056
 O1284 O 1.12160 0.40503 0.48059
 C1285 C 1.11457 0.42104 0.47370
 C1286 C 1.12467 0.43116 0.45706
 C1287 C 1.14202 0.42322 0.44885
 H1288 H 1.14860 0.41003 0.45514
 O1289 O 0.98100 0.57111 0.40145
 O1290 O 0.98089 0.59414 0.37833
 C1291 C 0.97409 0.57813 0.38544
 C1292 C 0.95750 0.56800 0.37540
 C1293 C 0.94927 0.57600 0.35805
 H1294 H 0.95552 0.58921 0.35145
 O1295 O 1.01929 0.42842 0.40140
 O1296 O 1.01941 0.40539 0.37833
 C1297 C 1.02620 0.42139 0.38541
 C1298 C 1.04281 0.43153 0.37537
 C1299 C 1.05105 0.42357 0.35803
 H1300 H 1.04480 0.41040 0.35140
 O1301 O 1.09871 0.48041 0.42842
 O1302 O 1.12173 0.48038 0.40534
 C1303 C 1.11468 0.47351 0.42136
 C1304 C 1.12472 0.45684 0.43148
 C1305 C 1.14207 0.44865 0.42353
 H1306 H 1.14870 0.45498 0.41037
 O1307 O 0.90164 0.51889 0.42835
 O1308 O 0.87865 0.51904 0.40525
 C1309 C 0.88569 0.52583 0.42129
 C1310 C 0.87566 0.54246 0.43143
 C1311 C 0.85831 0.55066 0.42349
 H1312 H 0.85168 0.54437 0.41033
 O1313 O 0.92876 0.59819 0.48059
 O1314 O 0.90577 0.62126 0.48053
 C1315 C 0.92176 0.61421 0.47371
 C1316 C 0.93192 0.62431 0.45712
 C1317 C 0.92400 0.64169 0.44893
 H1318 H 0.91084 0.64830 0.45522
 O1319 O 1.07140 0.40121 0.48066
 O1320 O 1.09439 0.37813 0.48067
 C1321 C 1.07842 0.38521 0.47380
 C1322 C 1.06831 0.37516 0.45718
 C1323 C 1.07627 0.35783 0.44897
 H1324 H 1.08943 0.35121 0.45525
 O1325 O 1.07178 0.51923 0.40131
 O1326 O 1.09477 0.51919 0.37821
 C1327 C 1.07881 0.52609 0.38527
 C1328 C 1.06872 0.54274 0.37516
 C1329 C 1.07669 0.55100 0.35780
 H1330 H 1.08986 0.54473 0.35120
 O1331 O 0.92850 0.48014 0.40119
 O1332 O 0.90555 0.48028 0.37806
 C1333 C 0.92148 0.47334 0.38514
 C1334 C 0.93157 0.45671 0.37504
 C1335 C 0.92361 0.44846 0.35769
 H1336 H 0.91044 0.45472 0.35109
 O1337 O 1.01957 0.59834 0.42837
 O1338 O 1.01948 0.62139 0.40527
 C1339 C 1.02635 0.61436 0.42130
 C1340 C 1.04289 0.62450 0.43141
 C1341 C 1.05104 0.64186 0.42343
 H1342 H 1.04475 0.64846 0.41023
 O1343 O 0.98071 0.40127 0.42842
 O1344 O 0.98079 0.37821 0.40538
 C1345 C 0.97392 0.38525 0.42139
 C1346 C 0.95735 0.37515 0.43152
 C1347 C 0.94920 0.35780 0.42357
 H1348 H 0.95551 0.35118 0.41040
 O1349 O 1.09853 0.57134 0.48052
 O1350 O 1.12155 0.59436 0.48052
 C1351 C 1.11453 0.57836 0.47368
 C1352 C 1.12465 0.56819 0.45712
 C1353 C 1.14201 0.57610 0.44894
 H1354 H 1.14859 0.58929 0.45522
 O1355 O 0.90142 0.42826 0.48043
 O1356 O 0.87843 0.40519 0.48051
 C1357 C 0.88544 0.42119 0.47361
 C1358 C 0.87533 0.43129 0.45699
 C1359 C 0.85800 0.42334 0.44880
 H1360 H 0.85140 0.41017 0.45512
 Cu1361 Cu 0.99997 0.41710 0.41715
 Cu1362 Cu 1.00010 0.38943 0.38948
 Cu1363 Cu 1.00031 0.58245 0.41718
 Cu1364 Cu 1.00018 0.61009 0.38944
 Cu1365 Cu 0.91740 0.49948 0.41712
 Cu1366 Cu 0.88983 0.49969 0.38937
 Cu1367 Cu 1.08286 0.49983 0.41726
 Cu1368 Cu 1.11047 0.49978 0.38954
 C1369 C 0.94848 0.44806 0.38348
 H1370 H 0.95450 0.45411 0.39704
 C1371 C 0.93227 0.43175 0.34908
 C1372 C 1.05182 0.55140 0.38360
 H1373 H 1.04579 0.54535 0.39716
 C1374 C 1.06805 0.56771 0.34917
 C1375 C 0.88376 0.44817 0.44826
 H1376 H 0.89730 0.45418 0.45427
 C1377 C 0.84940 0.43197 0.43206
 C1378 C 1.11624 0.55127 0.44846
 H1379 H 1.10267 0.54528 0.45446
 C1380 C 1.15065 0.56742 0.43227
 C1381 C 0.94862 0.38361 0.44841
 H1382 H 0.95461 0.39717 0.45443
 C1383 C 0.93250 0.34920 0.43218
 C1384 C 1.05158 0.61606 0.44834
 H1385 H 1.04559 0.60250 0.45438
 C1386 C 1.06770 0.65049 0.43208
 C1387 C 0.94883 0.55107 0.38385
 H1388 H 0.95484 0.54503 0.39742
 C1389 C 0.93260 0.56738 0.34945
 C1390 C 1.05148 0.44841 0.38385
 H1391 H 1.04545 0.45442 0.39742
 C1392 C 1.06775 0.43220 0.34946
 C1393 C 1.05143 0.38363 0.44847
 H1394 H 1.04542 0.39718 0.45449
 C1395 C 1.06766 0.34925 0.43224
 C1396 C 0.94880 0.61586 0.44842
 H1397 H 0.95479 0.60228 0.45443
 C1398 C 0.93263 0.65033 0.43223
 C1399 C 0.88413 0.55117 0.44832
 H1400 H 0.89769 0.54517 0.45432
 C1401 C 0.84971 0.56737 0.43213
 C1402 C 1.11625 0.44810 0.44837
 H1403 H 1.10270 0.45412 0.45438
 C1404 C 1.15066 0.43191 0.43215
 O1405 O 1.01925 0.42839 0.59847
 O1406 O 1.01928 0.40535 0.62158
 C1407 C 1.02609 0.42137 0.61450
 C1408 C 1.04265 0.43151 0.62457
 C1409 C 1.05085 0.42355 0.64194
 H1410 H 1.04459 0.41037 0.64857
 O1411 O 0.98082 0.57117 0.59850
 O1412 O 0.98078 0.59420 0.62158
 C1413 C 0.97396 0.57820 0.61452
 C1414 C 0.95738 0.56807 0.62461
 C1415 C 0.94917 0.57604 0.64195
 H1416 H 0.95544 0.58922 0.64855
 O1417 O 0.90164 0.51907 0.57155
 O1418 O 0.87860 0.51909 0.59460
 C1419 C 0.88565 0.52593 0.57858
 C1420 C 0.87558 0.54252 0.56841
 C1421 C 0.85824 0.55073 0.57634
 H1422 H 0.85163 0.54446 0.58954
 O1423 O 1.09843 0.48048 0.57137
 O1424 O 1.12146 0.48043 0.59444
 C1425 C 1.11442 0.47361 0.57842
 C1426 C 1.12450 0.45703 0.56828
 C1427 C 1.14188 0.44889 0.57621
 H1428 H 1.14850 0.45521 0.58937
 O1429 O 1.07156 0.40109 0.51941
 O1430 O 1.09455 0.37800 0.51944
 C1431 C 1.07858 0.38508 0.52631
 C1432 C 1.06847 0.37501 0.54298
 C1433 C 1.07640 0.35764 0.55124
 H1434 H 1.08955 0.35101 0.54497
 O1435 O 0.92864 0.59821 0.51931
 O1436 O 0.90564 0.62128 0.51927
 C1437 C 0.92161 0.61422 0.52616
 C1438 C 0.93171 0.62431 0.54278
 C1439 C 0.92375 0.64166 0.55099
 H1440 H 0.91058 0.64826 0.54470
 O1441 O 0.92862 0.48034 0.59865
 O1442 O 0.90561 0.48036 0.62173
 C1443 C 0.92158 0.47348 0.61467
 C1444 C 0.93165 0.45684 0.62477
 C1445 C 0.92367 0.44863 0.64214
 H1446 H 0.91052 0.45495 0.64874
 O1447 O 1.07148 0.51919 0.59846
 O1448 O 1.09448 0.51912 0.62155
 C1449 C 1.07852 0.52602 0.61449
 C1450 C 1.06845 0.54263 0.62459
 C1451 C 1.07646 0.55084 0.64192
 H1452 H 1.08964 0.54455 0.64849
 O1453 O 0.98075 0.40131 0.57137
 O1454 O 0.98072 0.37824 0.59445
 C1455 C 0.97390 0.38531 0.57841
 C1456 C 0.95734 0.37525 0.56826
 C1457 C 0.94914 0.35791 0.57623
 H1458 H 0.95540 0.35129 0.58944
 O1459 O 1.01939 0.59829 0.57142
 O1460 O 1.01937 0.62135 0.59446
 C1461 C 1.02621 0.61430 0.57845
 C1462 C 1.04278 0.62439 0.56830
 C1463 C 1.05096 0.64174 0.57626
 H1464 H 1.04468 0.64834 0.58945
 O1465 O 0.90157 0.42839 0.51915
 O1466 O 0.87858 0.40532 0.51926
 C1467 C 0.88562 0.42134 0.52607
 C1468 C 0.87558 0.43147 0.54270
 C1469 C 0.85822 0.42356 0.55090
 H1470 H 0.85159 0.41041 0.54460
 O1471 O 1.09849 0.57133 0.51921
 O1472 O 1.12152 0.59436 0.51924
 C1473 C 1.11446 0.57835 0.52608
 C1474 C 1.12452 0.56819 0.54268
 C1475 C 1.14184 0.57611 0.55090
 H1476 H 1.14844 0.58930 0.54463
 O1477 O 1.01944 0.57130 0.59857
 O1478 O 1.01943 0.59433 0.62165
 C1479 C 1.02629 0.57834 0.61459
 C1480 C 1.04290 0.56823 0.62465
 C1481 C 1.05116 0.57619 0.64198
 H1482 H 1.04491 0.58938 0.64860
 O1483 O 0.98062 0.42812 0.59866
 O1484 O 0.98064 0.40508 0.62177
 C1485 C 0.97377 0.42107 0.61469
 C1486 C 0.95716 0.43118 0.62479
 C1487 C 0.94892 0.42322 0.64216
 H1488 H 0.95516 0.41002 0.64878
 O1489 O 1.09844 0.51915 0.57134
 O1490 O 1.12146 0.51909 0.59441
 C1491 C 1.11442 0.52597 0.57839
 C1492 C 1.12451 0.54255 0.56826
 C1493 C 1.14183 0.55072 0.57623
 H1494 H 1.14842 0.54441 0.58943
 O1495 O 0.90171 0.48041 0.57147
 O1496 O 0.87867 0.48041 0.59452
 C1497 C 0.88572 0.47357 0.57850
 C1498 C 0.87562 0.45702 0.56834
 C1499 C 0.85826 0.44886 0.57627
 H1500 H 0.85166 0.45516 0.58946
 O1501 O 1.07146 0.59835 0.51920
 O1502 O 1.09445 0.62141 0.51922
 C1503 C 1.07847 0.61435 0.52607
 C1504 C 1.06834 0.62441 0.54269
 C1505 C 1.07627 0.64176 0.55089
 H1506 H 1.08943 0.64837 0.54461
 O1507 O 0.92862 0.40138 0.51915
 O1508 O 0.90566 0.37828 0.51924
 C1509 C 0.92164 0.38537 0.52605
 C1510 C 0.93179 0.37529 0.54265
 C1511 C 0.92386 0.35794 0.55086
 H1512 H 0.91070 0.35134 0.54458
 O1513 O 1.07134 0.48053 0.59839
 O1514 O 1.09434 0.48045 0.62148
 C1515 C 1.07835 0.47364 0.61441
 C1516 C 1.06821 0.45707 0.62452
 C1517 C 1.07616 0.44886 0.64189
 H1518 H 1.08933 0.45512 0.64849
 O1519 O 0.92873 0.51903 0.59855
 O1520 O 0.90571 0.51907 0.62163
 C1521 C 0.92169 0.52591 0.61456
 C1522 C 0.93180 0.54251 0.62462
 C1523 C 0.92384 0.55075 0.64197
 H1524 H 0.91066 0.54450 0.64857
 O1525 O 0.98077 0.59828 0.57146
 O1526 O 0.98073 0.62134 0.59451
 C1527 C 0.97390 0.61428 0.57850
 C1528 C 0.95730 0.62434 0.56836
 C1529 C 0.94910 0.64169 0.57631
 H1530 H 0.95539 0.64832 0.58948
 O1531 O 1.01939 0.40114 0.57161
 O1532 O 1.01937 0.37807 0.59468
 C1533 C 1.02625 0.38513 0.57867
 C1534 C 1.04287 0.37504 0.56858
 C1535 C 1.05105 0.35768 0.57658
 H1536 H 1.04474 0.35108 0.58977
 O1537 O 1.09846 0.42825 0.51928
 O1538 O 1.12148 0.40521 0.51934
 C1539 C 1.11444 0.42123 0.52616
 C1540 C 1.12452 0.43140 0.54272
 C1541 C 1.14189 0.42350 0.55091
 H1542 H 1.14851 0.41033 0.54464
 O1543 O 0.90165 0.57116 0.51927
 O1544 O 0.87862 0.59421 0.51923
 C1545 C 0.88566 0.57820 0.52611
 C1546 C 0.87558 0.56809 0.54274
 C1547 C 0.85824 0.57604 0.55092
 H1548 H 0.85163 0.58921 0.54460
 Cu1549 Cu 1.00000 0.41705 0.58271
 Cu1550 Cu 1.00001 0.38938 0.61043
 Cu1551 Cu 1.00011 0.58245 0.58268
 Cu1552 Cu 1.00007 0.61011 0.61037
 Cu1553 Cu 0.91734 0.41716 0.49977
 Cu1554 Cu 0.88977 0.38944 0.49989
 Cu1555 Cu 1.08270 0.41697 0.49998
 Cu1556 Cu 1.11030 0.38928 0.50001
 Cu1557 Cu 0.91750 0.58237 0.49993
 Cu1558 Cu 0.88987 0.61005 0.49987
 Cu1559 Cu 1.08269 0.58255 0.49985
 Cu1560 Cu 1.11032 0.61022 0.49987
 Cu1561 Cu 0.91749 0.49971 0.58275
 Cu1562 Cu 0.88984 0.49973 0.61044
 Cu1563 Cu 1.08261 0.49984 0.58257
 Cu1564 Cu 1.11024 0.49976 0.61029
 C1565 C 1.05133 0.44840 0.61608
 H1566 H 1.04532 0.45442 0.60249
 C1567 C 1.06754 0.43217 0.65052
 C1568 C 0.94870 0.55117 0.61616
 H1569 H 0.95472 0.54514 0.60260
 C1570 C 0.93247 0.56744 0.65056
 C1571 C 0.88402 0.55120 0.55148
 H1572 H 0.89757 0.54518 0.54548
 C1573 C 0.84964 0.56742 0.56765
 C1574 C 1.11605 0.44829 0.55140
 H1575 H 1.10247 0.45426 0.54541
 C1576 C 1.15050 0.43220 0.56758
 C1577 C 1.05158 0.38348 0.55166
 H1578 H 1.04558 0.39704 0.54561
 C1579 C 1.06774 0.34904 0.56797
 C1580 C 0.94861 0.61587 0.55147
 H1581 H 0.95462 0.60231 0.54546
 C1582 C 0.93240 0.65028 0.56768
 C1583 C 0.94851 0.44812 0.61633
 H1584 H 0.95455 0.45414 0.60276
 C1585 C 0.93224 0.43190 0.65077
 C1586 C 1.05155 0.55132 0.61618
 H1587 H 1.04550 0.54530 0.60263
 C1588 C 1.06787 0.56755 0.65054
 C1589 C 0.94867 0.38373 0.55134
 H1590 H 0.95467 0.39730 0.54531
 C1591 C 0.93247 0.34934 0.56758
 C1592 C 1.05147 0.61595 0.55139
 H1593 H 1.04548 0.60239 0.54537
 C1594 C 1.06763 0.65034 0.56761
 C1595 C 0.88406 0.44833 0.55142
 H1596 H 0.89763 0.45430 0.54541
 C1597 C 0.84964 0.43221 0.56761
 C1598 C 1.11608 0.55128 0.55135
 H1599 H 1.10254 0.54528 0.54531
 C1600 C 1.15042 0.56743 0.56760
 O1601 O 0.57138 1.01969 0.59881
 O1602 O 0.59441 1.01960 0.62188
 C1603 C 0.57845 1.02652 0.61483
 C1604 C 0.56841 1.04318 0.62492
 C1605 C 0.57641 1.05139 0.64226
 H1606 H 0.58957 1.04508 0.64885
 O1607 O 0.42834 0.98085 0.59845
 O1608 O 0.40540 0.98084 0.62161
 C1609 C 0.42136 0.97401 0.61451
 C1610 C 0.43151 0.95746 0.62463
 C1611 C 0.42358 0.94927 0.64201
 H1612 H 0.41041 0.95555 0.64861
 O1613 O 0.51923 1.09859 0.57140
 O1614 O 0.51920 1.12165 0.59444
 C1615 C 0.52604 1.11460 0.57842
 C1616 C 0.54260 1.12468 0.56827
 C1617 C 0.55079 1.14201 0.57623
 H1618 H 0.54452 1.14862 0.58942
 O1619 O 0.48048 0.90178 0.57149
 O1620 O 0.48048 0.87871 0.59458
 C1621 C 0.47364 0.88577 0.57855
 C1622 C 0.45709 0.87568 0.56842
 C1623 C 0.44891 0.85833 0.57642
 H1624 H 0.45517 0.85174 0.58964
 O1625 O 0.59829 1.07159 0.51920
 O1626 O 0.62133 1.09461 0.51922
 C1627 C 0.61428 1.07860 0.52607
 C1628 C 0.62434 1.06845 0.54267
 C1629 C 0.64168 1.07636 0.55086
 H1630 H 0.64830 1.08952 0.54455
 O1631 O 0.40136 0.92858 0.51923
 O1632 O 0.37835 0.90554 0.51936
 C1633 C 0.38540 0.92155 0.52616
 C1634 C 0.37535 0.93171 0.54278
 C1635 C 0.35801 0.92380 0.55101
 H1636 H 0.35139 0.91063 0.54474
 O1637 O 0.48079 1.07140 0.59850
 O1638 O 0.48069 1.09443 0.62157
 C1639 C 0.47391 1.07841 0.61451
 C1640 C 0.45733 1.06827 0.62456
 C1641 C 0.44915 1.07622 0.64192
 H1642 H 0.45545 1.08936 0.64856
 O1643 O 0.51907 0.92883 0.59852
 O1644 O 0.51909 0.90579 0.62163
 C1645 C 0.52591 0.92179 0.61455
 C1646 C 0.54247 0.93191 0.62465
 C1647 C 0.55066 0.92391 0.64200
 H1648 H 0.54440 0.91071 0.64860
 O1649 O 0.59824 0.98091 0.57169
 O1650 O 0.62130 0.98084 0.59472
 C1651 C 0.61423 0.97402 0.57871
 C1652 C 0.62430 0.95743 0.56854
 C1653 C 0.64167 0.94924 0.57646
 H1654 H 0.64829 0.95552 0.58963
 O1655 O 0.40118 1.01951 0.57149
 O1656 O 0.37821 1.01948 0.59462
 C1657 C 0.38520 1.02634 0.57858
 C1658 C 0.37509 1.04294 0.56847
 C1659 C 0.35776 1.05111 0.57644
 H1660 H 0.35117 1.04481 0.58964
 O1661 O 0.42836 1.09860 0.51957
 O1662 O 0.40535 1.12166 0.51949
 C1663 C 0.42131 1.11460 0.52641
 C1664 C 0.43138 1.12469 0.54306
 C1665 C 0.42342 1.14203 0.55129
 H1666 H 0.41024 1.14863 0.54501
 O1667 O 0.57128 0.90180 0.51937
 O1668 O 0.59425 0.87869 0.51942
 C1669 C 0.57827 0.88578 0.52625
 C1670 C 0.56812 0.87570 0.54286
 C1671 C 0.57603 0.85832 0.55108
 H1672 H 0.58920 0.85171 0.54482
 O1673 O 0.42844 1.01947 0.59831
 O1674 O 0.40550 1.01948 0.62147
 C1675 C 0.42148 1.02630 0.61436
 C1676 C 0.43166 1.04282 0.62447
 C1677 C 0.42373 1.05102 0.64184
 H1678 H 0.41053 1.04480 0.64843
 O1679 O 0.57110 0.98101 0.59863
 O1680 O 0.59413 0.98089 0.62169
 C1681 C 0.57813 0.97410 0.61463
 C1682 C 0.56801 0.95749 0.62469
 C1683 C 0.57596 0.94924 0.64204
 H1684 H 0.58913 0.95548 0.64865
 O1685 O 0.51909 0.90178 0.57149
 O1686 O 0.51910 0.87871 0.59457
 C1687 C 0.52594 0.88577 0.57854
 C1688 C 0.54252 0.87569 0.56843
 C1689 C 0.55068 0.85832 0.57640
 H1690 H 0.54437 0.85170 0.58958
 O1691 O 0.48059 1.09871 0.57168
 O1692 O 0.48054 1.12177 0.59472
 C1693 C 0.47368 1.11470 0.57873
 C1694 C 0.45701 1.12474 0.56864
 C1695 C 0.44879 1.14208 0.57660
 H1696 H 0.45509 1.14871 0.58976
 O1697 O 0.40123 1.07167 0.51950
 O1698 O 0.37818 1.09470 0.51940
 C1699 C 0.38521 1.07870 0.52629
 C1700 C 0.37508 1.06856 0.54288
 C1701 C 0.35773 1.07648 0.55108
 H1702 H 0.35112 1.08966 0.54478
 O1703 O 0.59828 0.92885 0.51938
 O1704 O 0.62127 0.90576 0.51943
 C1705 C 0.61424 0.92178 0.52627
 C1706 C 0.62431 0.93188 0.54289
 C1707 C 0.64167 0.92395 0.55107
 H1708 H 0.64828 0.91079 0.54475
 O1709 O 0.48048 0.92880 0.59856
 O1710 O 0.48048 0.90576 0.62167
 C1711 C 0.47364 0.92176 0.61460
 C1712 C 0.45708 0.93189 0.62468
 C1713 C 0.44888 0.92394 0.64206
 H1714 H 0.45515 0.91075 0.64869
 O1715 O 0.51941 1.07183 0.59880
 O1716 O 0.51934 1.09486 0.62187
 C1717 C 0.52624 1.07889 0.61483
 C1718 C 0.54288 1.06881 0.62493
 C1719 C 0.55113 1.07678 0.64228
 H1720 H 0.54487 1.08997 0.64888
 O1721 O 0.40138 0.98083 0.57134
 O1722 O 0.37841 0.98079 0.59447
 C1723 C 0.38543 0.97395 0.57844
 C1724 C 0.37536 0.95734 0.56834
 C1725 C 0.35803 0.94918 0.57631
 H1726 H 0.35142 0.95550 0.58949
 O1727 O 0.59818 1.01955 0.57151
 O1728 O 0.62124 1.01950 0.59455
 C1729 C 0.61419 1.02635 0.57852
 C1730 C 0.62429 1.04288 0.56833
 C1731 C 0.64164 1.05104 0.57626
 H1732 H 0.64823 1.04475 0.58947
 O1733 O 0.42845 0.90162 0.51920
 O1734 O 0.40547 0.87855 0.51933
 C1735 C 0.42145 0.88564 0.52613
 C1736 C 0.43158 0.87561 0.54277
 C1737 C 0.42366 0.85828 0.55101
 H1738 H 0.41051 0.85164 0.54472
 O1739 O 0.57128 1.09861 0.51919
 O1740 O 0.59428 1.12167 0.51922
 C1741 C 0.57830 1.11460 0.52606
 C1742 C 0.56817 1.12467 0.54267
 C1743 C 0.57612 1.14200 0.55089
 H1744 H 0.58929 1.14859 0.54462
 Cu1745 Cu 0.58241 1.00030 0.58286
 Cu1746 Cu 0.61007 1.00020 0.61053
 Cu1747 Cu 0.41713 1.00017 0.58256
 Cu1748 Cu 0.38957 1.00014 0.61036
 Cu1749 Cu 0.50002 1.08282 0.58278
 Cu1750 Cu 0.49993 1.11049 0.61046
 Cu1751 Cu 0.49977 0.91761 0.58269
 Cu1752 Cu 0.49979 0.88993 0.61043
 C1753 C 0.55152 1.05188 0.61649
 H1754 H 0.54547 1.04585 0.60295
 C1755 C 0.56783 1.06812 0.65088
 C1756 C 0.44840 0.94879 0.61620
 H1757 H 0.45441 0.95480 0.60261
 C1758 C 0.43220 0.93258 0.65064
 C1759 C 0.55128 1.11623 0.55135
 H1760 H 0.54528 1.10267 0.54533
 C1761 C 0.56748 1.15059 0.56759
 C1762 C 0.44843 0.88410 0.55147
 H1763 H 0.45441 0.89767 0.54543
 C1764 C 0.43226 0.84971 0.56776
 C1765 C 0.61587 1.05157 0.55140
 H1766 H 0.60231 1.04559 0.54540
 C1767 C 0.65025 1.06770 0.56758
 C1768 C 0.38381 0.94861 0.55144
 H1769 H 0.39736 0.95459 0.54541
 C1770 C 0.34942 0.93249 0.56770
 C1771 C 0.44860 1.05143 0.61605
 H1772 H 0.45461 1.04542 0.60247
 C1773 C 0.43242 1.06765 0.65048
 C1774 C 0.55113 0.94883 0.61621
 H1775 H 0.54512 0.95488 0.60264
 C1776 C 0.56733 0.93252 0.65061
 C1777 C 0.61585 0.94876 0.55163
 H1778 H 0.60228 0.95476 0.54564
 C1779 C 0.65028 0.93257 0.56777
 C1780 C 0.38352 1.05165 0.55156
 H1781 H 0.39707 1.04565 0.54554
 C1782 C 0.34914 1.06781 0.56779
 C1783 C 0.44830 1.11626 0.55175
 H1784 H 0.45432 1.10271 0.54573
 C1785 C 0.43206 1.15067 0.56799
 C1786 C 0.55123 0.88416 0.55153
 H1787 H 0.54525 0.89773 0.54550
 C1788 C 0.56736 0.84971 0.56778
 O1789 O 0.57118 0.98088 0.40155
 O1790 O 0.59414 0.98084 0.37841
 C1791 C 0.57817 0.97401 0.38553
 C1792 C 0.56803 0.95741 0.37547
 C1793 C 0.57601 0.94920 0.35812
 H1794 H 0.58919 0.95547 0.35153
 O1795 O 0.42858 1.01911 0.40150
 O1796 O 0.40557 1.01931 0.37842
 C1797 C 0.42157 1.02608 0.38552
 C1798 C 0.43169 1.04273 0.37551
 C1799 C 0.42373 1.05098 0.35816
 H1800 H 0.41059 1.04470 0.35153
 O1801 O 0.48061 1.09867 0.42857
 O1802 O 0.48051 1.12171 0.40547
 C1803 C 0.47370 1.11465 0.42151
 C1804 C 0.45709 1.12470 0.43164
 C1805 C 0.44887 1.14205 0.42366
 H1806 H 0.45515 1.14868 0.41047
 O1807 O 0.51891 0.90164 0.42850
 O1808 O 0.51907 0.87857 0.40547
 C1809 C 0.52585 0.88566 0.42149
 C1810 C 0.54248 0.87565 0.43165
 C1811 C 0.55071 0.85831 0.42372
 H1812 H 0.54443 0.85166 0.41056
 O1813 O 0.59841 0.92876 0.48064
 O1814 O 0.62139 0.90568 0.48068
 C1815 C 0.61439 0.92169 0.47379
 C1816 C 0.62448 0.93179 0.45716
 C1817 C 0.64183 0.92383 0.44898
 H1818 H 0.64842 0.91066 0.45530
 O1819 O 0.40153 1.07147 0.48080
 O1820 O 0.37848 1.09450 0.48067
 C1821 C 0.38556 1.07848 0.47387
 C1822 C 0.37552 1.06830 0.45727
 C1823 C 0.35816 1.07620 0.44907
 H1824 H 0.35153 1.08937 0.45534
 O1825 O 0.51931 1.07171 0.40145
 O1826 O 0.51920 1.09473 0.37832
 C1827 C 0.52612 1.07876 0.38540
 C1828 C 0.54273 1.06869 0.37529
 C1829 C 0.55093 1.07669 0.35792
 H1830 H 0.54463 1.08988 0.35133
 O1831 O 0.48025 0.92847 0.40118
 O1832 O 0.48040 0.90543 0.37812
 C1833 C 0.47347 0.92140 0.38515
 C1834 C 0.45685 0.93146 0.37501
 C1835 C 0.44865 0.92347 0.35767
 H1836 H 0.45495 0.91030 0.35107
 O1837 O 0.59836 1.01948 0.42849
 O1838 O 0.62135 1.01946 0.40539
 C1839 C 0.61434 1.02630 0.42142
 C1840 C 0.62444 1.04285 0.43156
 C1841 C 0.64181 1.05099 0.42362
 H1842 H 0.64842 1.04468 0.41045
 O1843 O 0.40132 0.98049 0.42838
 O1844 O 0.37828 0.98065 0.40533
 C1845 C 0.38529 0.97374 0.42134
 C1846 C 0.37515 0.95720 0.43150
 C1847 C 0.35780 0.94902 0.42357
 H1848 H 0.35121 0.95530 0.41036
 O1849 O 0.57135 1.09872 0.48048
 O1850 O 0.59436 1.12177 0.48048
 C1851 C 0.57838 1.11473 0.47362
 C1852 C 0.56826 1.12485 0.45703
 C1853 C 0.57619 1.14219 0.44878
 H1854 H 0.58937 1.14878 0.45504
 O1855 O 0.42824 0.90144 0.48047
 O1856 O 0.40526 0.87837 0.48058
 C1857 C 0.42121 0.88541 0.47365
 C1858 C 0.43130 0.87531 0.45702
 C1859 C 0.42338 0.85795 0.44881
 H1860 H 0.41022 0.85135 0.45510
 O1861 O 0.42825 0.98041 0.40119
 O1862 O 0.40524 0.98059 0.37811
 C1863 C 0.42118 0.97363 0.38514
 C1864 C 0.43124 0.95701 0.37501
 C1865 C 0.42327 0.94876 0.35767
 H1866 H 0.41008 0.95502 0.35108
 O1867 O 0.57140 1.01959 0.40136
 O1868 O 0.59436 1.01956 0.37823
 C1869 C 0.57842 1.02646 0.38533
 C1870 C 0.56832 1.04311 0.37526
 C1871 C 0.57627 1.05138 0.35790
 H1872 H 0.58945 1.04512 0.35129
 O1873 O 0.48026 0.90147 0.42836
 O1874 O 0.48041 0.87840 0.40533
 C1875 C 0.47349 0.88544 0.42132
 C1876 C 0.45690 0.87532 0.43142
 C1877 C 0.44872 0.85796 0.42346
 H1878 H 0.45502 0.85136 0.41028
 O1879 O 0.51925 1.09877 0.42850
 O1880 O 0.51915 1.12181 0.40539
 C1881 C 0.52605 1.11478 0.42141
 C1882 C 0.54264 1.12489 0.43148
 C1883 C 0.55082 1.14224 0.42348
 H1884 H 0.54452 1.14885 0.41030
 O1885 O 0.40126 0.92855 0.48054
 O1886 O 0.37825 0.90551 0.48064
 C1887 C 0.38526 0.92151 0.47375
 C1888 C 0.37514 0.93164 0.45717
 C1889 C 0.35780 0.92371 0.44900
 H1890 H 0.35120 0.91055 0.45533
 O1891 O 0.59833 1.07162 0.48052
 O1892 O 0.62137 1.09463 0.48051
 C1893 C 0.61433 1.07863 0.47368
 C1894 C 0.62444 1.06847 0.45712
 C1895 C 0.64180 1.07636 0.44894
 H1896 H 0.64841 1.08952 0.45522
 O1897 O 0.51889 0.92872 0.40144
 O1898 O 0.51907 0.90568 0.37837
 C1899 C 0.52584 0.92170 0.38546
 C1900 C 0.54246 0.93184 0.37542
 C1901 C 0.55070 0.92389 0.35807
 H1902 H 0.54445 0.91072 0.35145
 O1903 O 0.48067 1.07151 0.40162
 O1904 O 0.48055 1.09452 0.37849
 C1905 C 0.47377 1.07851 0.38560
 C1906 C 0.45720 1.06836 0.37555
 C1907 C 0.44898 1.07635 0.35820
 H1908 H 0.45522 1.08955 0.35159
 O1909 O 0.40153 1.01913 0.42852
 O1910 O 0.37849 1.01931 0.40547
 C1911 C 0.38557 1.02608 0.42151
 C1912 C 0.37553 1.04267 0.43169
 C1913 C 0.35817 1.05083 0.42376
 H1914 H 0.35155 1.04453 0.41059
 O1915 O 0.59842 0.98082 0.42840
 O1916 O 0.62141 0.98079 0.40529
 C1917 C 0.61440 0.97395 0.42134
 C1918 C 0.62449 0.95736 0.43150
 C1919 C 0.64183 0.94915 0.42356
 H1920 H 0.64844 0.95544 0.41037
 O1921 O 0.57123 0.90188 0.48065
 O1922 O 0.59419 0.87877 0.48069
 C1923 C 0.57822 0.88585 0.47382
 C1924 C 0.56809 0.87575 0.45723
 C1925 C 0.57605 0.85840 0.44905
 H1926 H 0.58923 0.85181 0.45533
 O1927 O 0.42841 1.09862 0.48081
 O1928 O 0.40540 1.12168 0.48071
 C1929 C 0.42139 1.11461 0.47389
 C1930 C 0.43151 1.12468 0.45725
 C1931 C 0.42355 1.14202 0.44901
 H1932 H 0.41038 1.14861 0.45528
 Cu1933 Cu 0.58253 1.00020 0.41727
 Cu1934 Cu 0.61010 1.00015 0.38951
 Cu1935 Cu 0.41723 0.99974 0.41720
 Cu1936 Cu 0.38959 1.00000 0.38951
 Cu1937 Cu 0.58250 1.08283 0.49984
 Cu1938 Cu 0.61014 1.11048 0.49986
 Cu1939 Cu 0.58250 0.91765 0.50000
 Cu1940 Cu 0.61007 0.88991 0.50006
 Cu1941 Cu 0.41719 1.08279 0.50019
 Cu1942 Cu 0.38956 1.11045 0.50005
 Cu1943 Cu 0.41714 0.91736 0.49983
 Cu1944 Cu 0.38953 0.88968 0.49999
 Cu1945 Cu 0.49998 1.08286 0.41736
 Cu1946 Cu 0.49983 1.11049 0.38960
 Cu1947 Cu 0.49954 0.91738 0.41718
 Cu1948 Cu 0.49976 0.88971 0.38952
 C1949 C 0.55113 0.94873 0.38391
 H1950 H 0.54510 0.95475 0.39747
 C1951 C 0.56740 0.93252 0.34950
 C1952 C 0.44855 1.05142 0.38400
 H1953 H 0.45456 1.04539 0.39757
 C1954 C 0.43231 1.06771 0.34959
 C1955 C 0.44840 1.11624 0.44856
 H1956 H 0.45442 1.10267 0.45459
 C1957 C 0.43217 1.15064 0.43229
 C1958 C 0.55117 0.88416 0.44853
 H1959 H 0.54515 0.89773 0.45452
 C1960 C 0.56742 0.84975 0.43236
 C1961 C 0.61605 0.94868 0.44843
 H1962 H 0.60250 0.95470 0.45444
 C1963 C 0.65044 0.93246 0.43225
 C1964 C 0.38399 1.05140 0.44858
 H1965 H 0.39756 1.04541 0.45458
 C1966 C 0.34956 1.06752 0.43239
 C1967 C 0.55143 1.05177 0.38373
 H1968 H 0.54542 1.04572 0.39729
 C1969 C 0.56763 1.06810 0.34930
 C1970 C 0.44815 0.94835 0.38344
 H1971 H 0.45418 0.95440 0.39699
 C1972 C 0.43192 0.93206 0.34905
 C1973 C 0.61599 1.05157 0.44844
 H1974 H 0.60242 1.04560 0.45445
 C1975 C 0.65041 1.06767 0.43226
 C1976 C 0.38358 0.94852 0.44844
 H1977 H 0.39713 0.95452 0.45444
 C1978 C 0.34920 0.93235 0.43228
 C1979 C 0.55135 1.11643 0.44839
 H1980 H 0.54535 1.10288 0.45444
 C1981 C 0.56753 1.15083 0.43208
 C1982 C 0.44819 0.88375 0.44833
 H1983 H 0.45419 0.89731 0.45436
 C1984 C 0.43203 0.84934 0.43210
 O1985 O 0.57139 0.51915 1.09856
 O1986 O 0.59438 0.51922 1.12166
 C1987 C 0.57840 0.52606 1.11455
 C1988 C 0.56829 0.54270 1.12457
 C1989 C 0.57624 0.55093 1.14192
 H1990 H 0.58939 0.54463 1.14855
 O1991 O 0.42848 0.48060 1.09875
 O1992 O 0.40546 0.48061 1.12182
 C1993 C 0.42143 0.47374 1.11478
 C1994 C 0.43151 0.45711 1.12490
 C1995 C 0.42351 0.44885 1.14223
 H1996 H 0.41031 0.45511 1.14879
 O1997 O 0.51921 0.59862 1.07138
 O1998 O 0.51927 0.62162 1.09448
 C1999 C 0.52608 0.61460 1.07844
 C2000 C 0.54266 0.62467 1.06830
 C2001 C 0.55084 0.64202 1.07625
 H2002 H 0.54454 0.64865 1.08941
 O2003 O 0.48080 0.40183 1.07169
 O2004 O 0.48076 0.37865 1.09466
 C2005 C 0.47396 0.38578 1.07864
 C2006 C 0.45744 0.37571 1.06841
 C2007 C 0.44928 0.35832 1.07633
 H2008 H 0.45552 0.35169 1.08953
 O2009 O 0.59848 0.57139 1.01945
 O2010 O 0.62147 0.59444 1.01943
 C2011 C 0.61445 0.57843 1.02631
 C2012 C 0.62454 0.56830 1.04292
 C2013 C 0.64188 0.57624 1.05111
 H2014 H 0.64846 0.58942 1.04480
 O2015 O 0.40163 0.42865 1.01919
 O2016 O 0.37865 0.40557 1.01928
 C2017 C 0.38567 0.42159 1.02609
 C2018 C 0.37560 0.43171 1.04270
 C2019 C 0.35825 0.42378 1.05089
 H2020 H 0.35164 0.41062 1.04459
 O2021 O 0.48064 0.57151 1.09847
 O2022 O 0.48067 0.59448 1.12160
 C2023 C 0.47381 0.57850 1.11452
 C2024 C 0.45724 0.56837 1.12462
 C2025 C 0.44903 0.57634 1.14198
 H2026 H 0.45530 0.58952 1.14857
 O2027 O 0.51940 0.42866 1.09901
 O2028 O 0.51937 0.40550 1.12200
 C2029 C 0.52625 0.42151 1.11499
 C2030 C 0.54291 0.43152 1.12508
 C2031 C 0.55112 0.42348 1.14242
 H2032 H 0.54480 0.41032 1.14903
 O2033 O 0.59855 0.48051 1.07162
 O2034 O 0.62158 0.48052 1.09469
 C2035 C 0.61455 0.47368 1.07866
 C2036 C 0.62466 0.45712 1.06850
 C2037 C 0.64202 0.44892 1.07641
 H2038 H 0.64862 0.45518 1.08960
 O2039 O 0.40149 0.51936 1.07164
 O2040 O 0.37844 0.51934 1.09468
 C2041 C 0.38550 0.52621 1.07867
 C2042 C 0.37541 0.54282 1.06852
 C2043 C 0.35805 0.55099 1.07645
 H2044 H 0.35143 0.54468 1.08962
 O2045 O 0.42850 0.59874 1.01954
 O2046 O 0.40546 0.62178 1.01948
 C2047 C 0.42145 0.61475 1.02636
 C2048 C 0.43155 0.62486 1.04296
 C2049 C 0.42360 0.64220 1.05119
 H2050 H 0.41043 0.64880 1.04492
 O2051 O 0.57142 0.40167 1.01938
 O2052 O 0.59439 0.37857 1.01943
 C2053 C 0.57842 0.38566 1.02627
 C2054 C 0.56829 0.37560 1.04290
 C2055 C 0.57620 0.35821 1.05110
 H2056 H 0.58935 0.35158 1.04479
 O2057 O 0.42863 0.51930 1.09859
 O2058 O 0.40561 0.51933 1.12166
 C2059 C 0.42159 0.52617 1.11459
 C2060 C 0.43169 0.54278 1.12466
 C2061 C 0.42373 0.55101 1.14201
 H2062 H 0.41057 0.54475 1.14863
 O2063 O 0.57165 0.48045 1.09885
 O2064 O 0.59464 0.48049 1.12195
 C2065 C 0.57869 0.47360 1.11489
 C2066 C 0.56858 0.45699 1.12502
 C2067 C 0.57655 0.44870 1.14237
 H2068 H 0.58975 0.45491 1.14894
 O2069 O 0.51940 0.40177 1.07178
 O2070 O 0.51936 0.37859 1.09475
 C2071 C 0.52622 0.38572 1.07875
 C2072 C 0.54277 0.37563 1.06857
 C2073 C 0.55094 0.35824 1.07650
 H2074 H 0.54468 0.35163 1.08970
 O2075 O 0.48059 0.59873 1.07152
 O2076 O 0.48063 0.62172 1.09463
 C2077 C 0.47376 0.61472 1.07861
 C2078 C 0.45716 0.62485 1.06853
 C2079 C 0.44895 0.64219 1.07651
 H2080 H 0.45525 0.64878 1.08970
 O2081 O 0.40156 0.57161 1.01952
 O2082 O 0.37849 0.59462 1.01946
 C2083 C 0.38554 0.57862 1.02634
 C2084 C 0.37544 0.56846 1.04292
 C2085 C 0.35807 0.57637 1.05109
 H2086 H 0.35147 0.58955 1.04479
 O2087 O 0.59857 0.42856 1.01938
 O2088 O 0.62158 0.40548 1.01940
 C2089 C 0.61456 0.42149 1.02624
 C2090 C 0.62465 0.43160 1.04283
 C2091 C 0.64202 0.42366 1.05099
 H2092 H 0.64863 0.41051 1.04466
 O2093 O 0.48072 0.42865 1.09899
 O2094 O 0.48066 0.40550 1.12198
 C2095 C 0.47381 0.42152 1.11495
 C2096 C 0.45714 0.43156 1.12501
 C2097 C 0.44886 0.42355 1.14233
 H2098 H 0.45514 0.41037 1.14896
 O2099 O 0.51928 0.57150 1.09842
 O2100 O 0.51932 0.59447 1.12155
 C2101 C 0.52616 0.57849 1.11444
 C2102 C 0.54276 0.56835 1.12451
 C2103 C 0.55098 0.57631 1.14186
 H2104 H 0.54473 0.58951 1.14845
 O2105 O 0.40165 0.48069 1.07148
 O2106 O 0.37860 0.48066 1.09453
 C2107 C 0.38566 0.47383 1.07850
 C2108 C 0.37559 0.45727 1.06833
 C2109 C 0.35824 0.44909 1.07626
 H2110 H 0.35162 0.45537 1.08945
 O2111 O 0.59857 0.51917 1.07166
 O2112 O 0.62159 0.51921 1.09473
 C2113 C 0.61454 0.52605 1.07870
 C2114 C 0.62459 0.54267 1.06854
 C2115 C 0.64193 0.55086 1.07647
 H2116 H 0.64856 0.54456 1.08965
 O2117 O 0.42879 0.40175 1.01919
 O2118 O 0.40584 0.37864 1.01927
 C2119 C 0.42182 0.38574 1.02609
 C2120 C 0.43196 0.37568 1.04271
 C2121 C 0.42406 0.35830 1.05089
 H2122 H 0.41094 0.35166 1.04456
 O2123 O 0.57146 0.59846 1.01938
 O2124 O 0.59443 0.62154 1.01936
 C2125 C 0.57845 0.61449 1.02620
 C2126 C 0.56829 0.62460 1.04276
 C2127 C 0.57622 0.64195 1.05095
 H2128 H 0.58940 0.64853 1.04468
 Cu2129 Cu 0.58273 0.49980 1.08286
 Cu2130 Cu 0.61034 0.49987 1.11057
 Cu2131 Cu 0.41738 0.49999 1.08281
 Cu2132 Cu 0.38973 0.49998 1.11048
 Cu2133 Cu 0.49992 0.58279 1.08263
 Cu2134 Cu 0.49998 0.61037 1.11038
 Cu2135 Cu 0.50008 0.41757 1.08308
 Cu2136 Cu 0.50003 0.38975 1.11065
 C2137 C 0.55142 0.55142 1.11608
 H2138 H 0.54541 0.54539 1.10251
 C2139 C 0.56765 0.56766 1.15048
 C2140 C 0.44845 0.44846 1.11652
 H2141 H 0.45451 0.45452 1.10298
 C2142 C 0.43212 0.43214 1.15089
 C2143 C 0.55137 0.61619 1.05142
 H2144 H 0.54538 0.60263 1.04541
 C2145 C 0.56755 0.65059 1.06762
 C2146 C 0.44879 0.38417 1.05147
 H2147 H 0.45477 0.39777 1.04548
 C2148 C 0.43266 0.34969 1.06762
 C2149 C 0.61612 0.55138 1.05164
 H2150 H 0.60257 0.54538 1.04564
 C2151 C 0.65051 0.56758 1.06781
 C2152 C 0.38404 0.44859 1.05142
 H2153 H 0.39760 0.45459 1.04542
 C2154 C 0.34964 0.43242 1.06760
 C2155 C 0.44857 0.55146 1.11619
 H2156 H 0.45459 0.54544 1.10262
 C2157 C 0.43235 0.56772 1.15060
 C2158 C 0.55164 0.44840 1.11662
 H2159 H 0.54561 0.45448 1.10307
 C2160 C 0.56787 0.43202 1.15100
 C2161 C 0.61621 0.44847 1.05157
 H2162 H 0.60264 0.45448 1.04558
 C2163 C 0.65062 0.43226 1.06771
 C2164 C 0.38388 0.55155 1.05163
 H2165 H 0.39744 0.54556 1.04563
 C2166 C 0.34944 0.56770 1.06779
 C2167 C 0.44846 0.61642 1.05162
 H2168 H 0.45448 0.60288 1.04557
 C2169 C 0.43225 0.65080 1.06790
 C2170 C 0.55144 0.38409 1.05163
 H2171 H 0.54546 0.39767 1.04563
 C2172 C 0.56758 0.34961 1.06782
 O2173 O 0.57146 0.48078 0.90153
 O2174 O 0.59442 0.48082 0.87840
 C2175 C 0.57846 0.47395 0.88549
 C2176 C 0.56836 0.45738 0.87540
 C2177 C 0.57632 0.44919 0.85804
 H2178 H 0.58949 0.45547 0.85144
 O2179 O 0.42862 0.51938 0.90144
 O2180 O 0.40564 0.51945 0.87833
 C2181 C 0.42161 0.52627 0.88541
 C2182 C 0.43171 0.54287 0.87533
 C2183 C 0.42375 0.55109 0.85797
 H2184 H 0.41060 0.54481 0.85136
 O2185 O 0.48061 0.59857 0.92856
 O2186 O 0.48062 0.62165 0.90549
 C2187 C 0.47378 0.61458 0.92151
 C2188 C 0.45723 0.62467 0.93166
 C2189 C 0.44903 0.64202 0.92368
 H2190 H 0.45529 0.64862 0.91047
 O2191 O 0.51944 0.40153 0.92850
 O2192 O 0.51949 0.37851 0.90542
 C2193 C 0.52631 0.38554 0.92144
 C2194 C 0.54291 0.37547 0.93157
 C2195 C 0.55113 0.35813 0.92362
 H2196 H 0.54487 0.35151 0.91043
 O2197 O 0.59852 0.42864 0.98069
 O2198 O 0.62153 0.40557 0.98068
 C2199 C 0.61450 0.42159 0.97383
 C2200 C 0.62458 0.43174 0.95723
 C2201 C 0.64192 0.42380 0.94902
 H2202 H 0.64852 0.41062 0.95530
 O2203 O 0.40165 0.57160 0.98081
 O2204 O 0.37859 0.59461 0.98072
 C2205 C 0.38568 0.57862 0.97390
 C2206 C 0.37566 0.56848 0.95727
 C2207 C 0.35832 0.57641 0.94905
 H2208 H 0.35170 0.58958 0.95532
 O2209 O 0.51919 0.57149 0.90151
 O2210 O 0.51922 0.59454 0.87842
 C2211 C 0.52604 0.57853 0.88549
 C2212 C 0.54261 0.56841 0.87541
 C2213 C 0.55079 0.57638 0.85803
 H2214 H 0.54450 0.58955 0.85141
 O2215 O 0.48078 0.42861 0.90146
 O2216 O 0.48081 0.40562 0.87835
 C2217 C 0.47394 0.42160 0.88543
 C2218 C 0.45734 0.43172 0.87536
 C2219 C 0.44912 0.42375 0.85801
 H2220 H 0.45540 0.41058 0.85140
 O2221 O 0.59850 0.51943 0.92853
 O2222 O 0.62150 0.51946 0.90542
 C2223 C 0.61448 0.52628 0.92146
 C2224 C 0.62457 0.54284 0.93161
 C2225 C 0.64192 0.55101 0.92367
 H2226 H 0.64853 0.54473 0.91047
 O2227 O 0.40150 0.48073 0.92843
 O2228 O 0.37849 0.48080 0.90535
 C2229 C 0.38551 0.47393 0.92137
 C2230 C 0.37541 0.45734 0.93150
 C2231 C 0.35807 0.44917 0.92356
 H2232 H 0.35145 0.45549 0.91038
 O2233 O 0.57143 0.59839 0.98068
 O2234 O 0.59440 0.62147 0.98064
 C2235 C 0.57843 0.61440 0.97380
 C2236 C 0.56829 0.62450 0.95719
 C2237 C 0.57620 0.64187 0.94898
 H2238 H 0.58937 0.64846 0.95524
 O2239 O 0.42861 0.40159 0.98047
 O2240 O 0.40566 0.37849 0.98054
 C2241 C 0.42161 0.38556 0.97365
 C2242 C 0.43175 0.37546 0.95706
 C2243 C 0.42382 0.35813 0.94883
 H2244 H 0.41063 0.35154 0.95507
 O2245 O 0.42866 0.48072 0.90149
 O2246 O 0.40568 0.48076 0.87839
 C2247 C 0.42165 0.47389 0.88546
 C2248 C 0.43176 0.45729 0.87537
 C2249 C 0.42379 0.44908 0.85802
 H2250 H 0.41062 0.45535 0.85142
 O2251 O 0.57138 0.51944 0.90157
 O2252 O 0.59435 0.51948 0.87843
 C2253 C 0.57837 0.52630 0.88553
 C2254 C 0.56822 0.54288 0.87543
 C2255 C 0.57615 0.55110 0.85806
 H2256 H 0.58933 0.54485 0.85145
 O2257 O 0.48082 0.40151 0.92851
 O2258 O 0.48085 0.37849 0.90542
 C2259 C 0.47399 0.38552 0.92144
 C2260 C 0.45740 0.37543 0.93154
 C2261 C 0.44923 0.35810 0.92356
 H2262 H 0.45555 0.35148 0.91039
 O2263 O 0.51922 0.59852 0.92857
 O2264 O 0.51924 0.62160 0.90550
 C2265 C 0.52608 0.61452 0.92152
 C2266 C 0.54267 0.62456 0.93164
 C2267 C 0.55084 0.64193 0.92368
 H2268 H 0.54453 0.64857 0.91051
 O2269 O 0.40156 0.42863 0.98049
 O2270 O 0.37859 0.40555 0.98055
 C2271 C 0.38558 0.42157 0.97367
 C2272 C 0.37545 0.43170 0.95709
 C2273 C 0.35811 0.42377 0.94890
 H2274 H 0.35153 0.41058 0.95519
 O2275 O 0.59854 0.57143 0.98072
 O2276 O 0.62154 0.59448 0.98069
 C2277 C 0.61451 0.57848 0.97385
 C2278 C 0.62459 0.56837 0.95725
 C2279 C 0.64194 0.57630 0.94906
 H2280 H 0.64855 0.58945 0.95537
 O2281 O 0.51939 0.42865 0.90148
 O2282 O 0.51944 0.40566 0.87836
 C2283 C 0.52625 0.42165 0.88545
 C2284 C 0.54282 0.43179 0.87537
 C2285 C 0.55104 0.42385 0.85801
 H2286 H 0.54479 0.41068 0.85139
 O2287 O 0.48060 0.57157 0.90147
 O2288 O 0.48060 0.59462 0.87837
 C2289 C 0.47376 0.57862 0.88544
 C2290 C 0.45721 0.56850 0.87534
 C2291 C 0.44900 0.57647 0.85797
 H2292 H 0.45523 0.58967 0.85136
 O2293 O 0.40171 0.51939 0.92859
 O2294 O 0.37870 0.51947 0.90551
 C2295 C 0.38575 0.52628 0.92154
 C2296 C 0.37569 0.54288 0.93168
 C2297 C 0.35835 0.55106 0.92372
 H2298 H 0.35175 0.54476 0.91055
 O2299 O 0.59849 0.48078 0.92857
 O2300 O 0.62149 0.48080 0.90546
 C2301 C 0.61447 0.47394 0.92150
 C2302 C 0.62457 0.45736 0.93163
 C2303 C 0.64189 0.44918 0.92366
 H2304 H 0.64848 0.45548 0.91046
 O2305 O 0.57155 0.40158 0.98065
 O2306 O 0.59453 0.37848 0.98068
 C2307 C 0.57857 0.38557 0.97380
 C2308 C 0.56847 0.37549 0.95718
 C2309 C 0.57644 0.35816 0.94897
 H2310 H 0.58962 0.35157 0.95526
 O2311 O 0.42862 0.59864 0.98083
 O2312 O 0.40559 0.62169 0.98075
 C2313 C 0.42159 0.61463 0.97393
 C2314 C 0.43170 0.62470 0.95730
 C2315 C 0.42376 0.64204 0.94908
 H2316 H 0.41061 0.64866 0.95537
 Cu2317 Cu 0.58265 0.50011 0.91737
 Cu2318 Cu 0.61024 0.50014 0.88961
 Cu2319 Cu 0.41743 0.50004 0.91730
 Cu2320 Cu 0.38982 0.50013 0.88958
 Cu2321 Cu 0.58268 0.58260 1.00006
 Cu2322 Cu 0.61027 0.61029 1.00003
 Cu2323 Cu 0.58271 0.41743 1.00002
 Cu2324 Cu 0.61030 0.38971 1.00005
 Cu2325 Cu 0.41739 0.58284 1.00019
 Cu2326 Cu 0.38972 0.61048 1.00010
 Cu2327 Cu 0.41745 0.41747 0.99981
 Cu2328 Cu 0.38989 0.38974 0.99992
 Cu2329 Cu 0.49990 0.58272 0.91734
 Cu2330 Cu 0.49992 0.61042 0.88963
 Cu2331 Cu 0.50010 0.41738 0.91731
 Cu2332 Cu 0.50015 0.38976 0.88957
 C2333 C 0.55147 0.44869 0.88384
 H2334 H 0.54545 0.45469 0.89742
 C2335 C 0.56772 0.43250 0.84942
 C2336 C 0.44857 0.55157 0.88379
 H2337 H 0.45459 0.54554 0.89736
 C2338 C 0.43234 0.56781 0.84936
 C2339 C 0.44857 0.61623 0.94860
 H2340 H 0.45457 0.60266 0.95463
 C2341 C 0.43237 0.65063 0.93234
 C2342 C 0.55158 0.38393 0.94848
 H2343 H 0.54556 0.39748 0.95450
 C2344 C 0.56783 0.34955 0.93226
 C2345 C 0.61614 0.44865 0.94855
 H2346 H 0.60259 0.45466 0.95458
 C2347 C 0.65050 0.43247 0.93230
 C2348 C 0.38413 0.55159 0.94858
 H2349 H 0.39769 0.54559 0.95460
 C2350 C 0.34975 0.56775 0.93235
 C2351 C 0.55132 0.55152 0.88389
 H2352 H 0.54532 0.54550 0.89747
 C2353 C 0.56748 0.56777 0.84943
 C2354 C 0.44866 0.44861 0.88381
 H2355 H 0.45468 0.45464 0.89737
 C2356 C 0.43242 0.43237 0.84941
 C2357 C 0.61614 0.55151 0.94853
 H2358 H 0.60257 0.54551 0.95453
 C2359 C 0.65053 0.56767 0.93234
 C2360 C 0.38386 0.44862 0.94840
 H2361 H 0.39742 0.45462 0.95441
 C2362 C 0.34949 0.43246 0.93221
 C2363 C 0.55139 0.61607 0.94852
 H2364 H 0.54540 0.60249 0.95455
 C2365 C 0.56753 0.65051 0.93229
 C2366 C 0.44867 0.38389 0.94842
 H2367 H 0.45466 0.39744 0.95445
 C2368 C 0.43251 0.34951 0.93215
 C2369 C 1.11341 1.10316 1.19943
 C2370 C 1.10425 1.12000 1.21197
 C2371 C 1.10968 1.10856 1.23085
 C2372 C 1.11899 1.09187 1.21859
 C2373 C 1.09333 1.09262 1.19942
 C2374 C 1.09877 1.08119 1.21829
 C2375 C 1.08403 1.10932 1.21167
 C2376 C 1.08960 1.09802 1.23081
 C2377 C 1.11864 1.11743 1.24841
 C2378 C 1.12589 1.12476 1.26291
 C2379 C 1.08413 1.08366 1.18203
 C2380 C 1.07657 1.07625 1.16772
 H2381 H 1.12309 1.10519 1.18633
 H2382 H 1.10663 1.13606 1.20958
 H2383 H 1.13346 1.08480 1.22164
 H2384 H 1.09641 1.06512 1.22067
 H2385 H 1.06957 1.11641 1.20860
 H2386 H 1.07991 1.09600 1.24391
 C2387 C 1.08349 0.59422 0.71986
 C2388 C 1.10289 0.58713 0.72970
 C2389 C 1.10977 0.60872 0.73100
 C2390 C 1.09051 0.61595 0.72142
 C2391 C 1.09350 0.59273 0.69952
 C2392 C 1.10039 0.61432 0.70081
 C2393 C 1.11278 0.58550 0.70909
 C2394 C 1.11980 0.60724 0.71066
 C2395 C 1.11870 0.61760 0.74861
 C2396 C 1.12593 0.62493 0.76314
 C2397 C 1.08432 0.58375 0.68209
 C2398 C 1.07677 0.57635 0.66776
 H2399 H 1.06845 0.58877 0.72341
 H2400 H 1.10401 0.57603 0.74176
 H2401 H 1.08143 0.62857 0.72666
 H2402 H 1.09928 0.62540 0.68873
 H2403 H 1.12185 0.57290 0.70380
 H2404 H 1.13484 0.61270 0.70708
 C2405 C 0.61513 1.09992 0.70118
 C2406 C 0.60827 1.11929 0.71129
 C2407 C 0.60989 1.10903 0.73152
 C2408 C 0.61690 1.08980 0.72169
 C2409 C 0.59351 1.09317 0.70000
 C2410 C 0.59514 1.08291 0.72023
 C2411 C 0.58651 1.11241 0.70983
 C2412 C 0.58827 1.10228 0.73032
 C2413 C 0.61886 1.11787 0.74916
 C2414 C 0.62613 1.12518 0.76371
 C2415 C 0.58428 1.08426 0.68252
 C2416 C 0.57671 1.07690 0.66815
 H2417 H 0.62610 1.09888 0.68902
 H2418 H 0.61378 1.13435 0.70781
 H2419 H 0.62950 1.08059 0.72674
 H2420 H 0.58965 1.06785 0.72372
 H2421 H 0.57393 1.12164 0.70476
 H2422 H 0.57731 1.10333 0.74249
 C2423 C 0.61387 0.60220 1.19985
 C2424 C 0.60538 0.61998 1.21153
 C2425 C 0.60946 0.60886 1.23095
 C2426 C 0.61810 0.59123 1.21955
 C2427 C 0.59318 0.59291 1.19945
 C2428 C 0.59728 0.58181 1.21887
 C2429 C 0.58455 0.61055 1.21085
 C2430 C 0.58878 0.59958 1.23053
 C2431 C 0.61839 0.61770 1.24857
 C2432 C 0.62564 0.62498 1.26312
 C2433 C 0.58402 0.58392 1.18202
 C2434 C 0.57650 0.57648 1.16769
 H2435 H 0.62408 0.60320 1.18704
 H2436 H 0.60882 0.63577 1.20871
 H2437 H 0.63201 0.58339 1.22330
 H2438 H 0.59386 0.56601 1.22168
 H2439 H 0.57067 0.61841 1.20707
 H2440 H 0.57855 0.59860 1.24333
 C2441 C 0.90534 0.91713 1.22033
 C2442 C 0.88352 0.91047 1.22186
 C2443 C 0.89037 0.89109 1.23154
 C2444 C 0.91205 0.89762 1.23027
 C2445 C 0.90677 0.90702 1.20003
 C2446 C 0.91361 0.88763 1.20971
 C2447 C 0.88508 0.90049 1.20128
 C2448 C 0.89179 0.88097 1.21124
 C2449 C 0.88134 0.88221 1.24914
 C2450 C 0.87401 0.87486 1.26364
 C2451 C 0.91597 0.91598 1.18256
 C2452 C 0.92351 0.92338 1.16818
 H2453 H 0.91102 0.93211 1.22387
 H2454 H 0.87104 0.91977 1.22703
 H2455 H 0.92307 0.89635 1.24237
 H2456 H 0.92606 0.87831 1.20452
 H2457 H 0.87407 0.90174 1.18918
 H2458 H 0.88610 0.86599 1.20770
 C2459 C 0.88507 0.41043 0.70633
 C2460 C 0.88276 0.38796 0.71014
 C2461 C 0.89012 0.39104 0.73142
 C2462 C 0.89228 0.41337 0.72789
 C2463 C 0.90653 0.40687 0.69989
 C2464 C 0.91387 0.40994 0.72117
 C2465 C 0.90436 0.38454 0.70341
 C2466 C 0.91157 0.38748 0.72496
 C2467 C 0.88113 0.38222 0.74907
 C2468 C 0.87387 0.37492 0.76363
 C2469 C 0.91578 0.41577 0.68240
 C2470 C 0.92336 0.42312 0.66803
 H2471 H 0.87425 0.41995 0.69847
 H2472 H 0.86986 0.37883 0.70581
 H2473 H 0.88720 0.42514 0.73814
 H2474 H 0.92676 0.41907 0.72552
 H2475 H 0.90941 0.37276 0.69315
 H2476 H 0.92237 0.37793 0.73281
 C2477 C 0.39170 0.89030 0.69909
 C2478 C 0.40308 0.88023 0.71625
 C2479 C 0.39022 0.89157 0.73113
 C2480 C 0.37868 0.90149 0.71426
 C2481 C 0.40656 0.90744 0.69962
 C2482 C 0.39368 0.91877 0.71450
 C2483 C 0.41807 0.89750 0.71650
 C2484 C 0.40507 0.90870 0.73165
 C2485 C 0.38129 0.88274 0.74876
 C2486 C 0.37408 0.87546 0.76333
 C2487 C 0.41577 0.91638 0.68219
 C2488 C 0.42333 0.92378 0.66786
 H2489 H 0.38629 0.88282 0.68552
 H2490 H 0.40681 0.86428 0.71717
 H2491 H 0.36238 0.90302 0.71355
 H2492 H 0.38991 0.93471 0.71356
 H2493 H 0.43437 0.89594 0.71720
 H2494 H 0.41047 0.91619 0.74522
 C2495 C 0.40782 0.41564 1.22094
 C2496 C 0.38540 0.41207 1.22369
 C2497 C 0.38994 0.39124 1.23152
 C2498 C 0.41222 0.39467 1.22903
 C2499 C 0.40640 0.40701 1.19997
 C2500 C 0.41092 0.38616 1.20779
 C2501 C 0.38411 0.40357 1.20244
 C2502 C 0.38850 0.38258 1.21055
 C2503 C 0.38092 0.38249 1.24921
 C2504 C 0.37365 0.37527 1.26381
 C2505 C 0.41565 0.41592 1.18249
 C2506 C 0.42322 0.42332 1.16813
 H2507 H 0.41587 0.42933 1.22503
 H2508 H 0.37480 0.42264 1.23039
 H2509 H 0.42368 0.39091 1.24015
 H2510 H 0.42150 0.37558 1.20107
 H2511 H 0.37264 0.40730 1.19131
 H2512 H 0.38045 0.36889 1.20647
 C2513 C 0.91547 1.09207 0.77954
 C2514 C 0.89488 1.08655 0.77130
 C2515 C 0.89019 1.10864 0.76894
 C2516 C 0.91065 1.11430 0.77692
 C2517 C 0.90664 1.09286 0.80046
 C2518 C 0.90195 1.11496 0.79812
 C2519 C 0.88617 1.08721 0.79249
 C2520 C 0.88134 1.10945 0.78986
 C2521 C 0.88123 1.11740 0.75129
 C2522 C 0.87402 1.12463 0.73670
 C2523 C 0.91591 1.08398 0.81789
 C2524 C 0.92352 1.07662 0.83222
 H2525 H 0.92962 1.08484 0.77550
 H2526 H 0.89186 1.07495 0.76009
 H2527 H 0.92060 1.12555 0.77033
 H2528 H 0.90494 1.12656 0.80934
 H2529 H 0.87620 1.07599 0.79911
 H2530 H 0.86719 1.11669 0.79389
 C2531 C 0.91486 0.59036 0.27932
 C2532 C 0.89352 0.58640 0.27214
 C2533 C 0.89070 0.60872 0.26905
 C2534 C 0.91190 0.61282 0.27597
 C2535 C 0.90704 0.59273 0.30052
 C2536 C 0.90421 0.61506 0.29745
 C2537 C 0.88583 0.58864 0.29361
 C2538 C 0.88286 0.61111 0.29025
 C2539 C 0.88172 0.61757 0.25145
 C2540 C 0.87446 0.62486 0.23691
 C2541 C 0.91621 0.58371 0.31793
 C2542 C 0.92374 0.57625 0.33225
 H2543 H 0.92814 0.58174 0.27504
 H2544 H 0.88903 0.57470 0.26155
 H2545 H 0.92252 0.62287 0.26853
 H2546 H 0.90869 0.62675 0.30805
 H2547 H 0.87520 0.57862 0.30108
 H2548 H 0.86959 0.61974 0.29453
 C2549 C 0.41597 1.09268 0.27982
 C2550 C 0.39561 1.08688 0.27118
 C2551 C 0.39052 1.10891 0.26908
 C2552 C 0.41074 1.11485 0.27746
 C2553 C 0.40680 1.09299 0.30061
 C2554 C 0.40171 1.11502 0.29852
 C2555 C 0.38658 1.08705 0.29224
 C2556 C 0.38134 1.10923 0.28987
 C2557 C 0.38159 1.11772 0.25144
 C2558 C 0.37436 1.12497 0.23687
 C2559 C 0.41596 1.08400 0.31805
 C2560 C 0.42347 1.07656 0.33238
 H2561 H 0.43032 1.08579 0.27592
 H2562 H 0.39300 1.07539 0.25976
 H2563 H 0.42058 1.12638 0.27119
 H2564 H 0.40430 1.12651 0.30996
 H2565 H 0.37673 1.07555 0.29855
 H2566 H 0.36700 1.11614 0.29378
 C2567 C 0.41443 0.59055 0.77918
 C2568 C 0.39308 0.58652 0.77205
 C2569 C 0.39021 0.60883 0.76893
 C2570 C 0.41141 0.61299 0.77580
 C2571 C 0.40664 0.59295 0.80039
 C2572 C 0.40375 0.61526 0.79728
 C2573 C 0.38543 0.58879 0.79353
 C2574 C 0.38240 0.61124 0.79013
 C2575 C 0.38121 0.61768 0.75134
 C2576 C 0.37392 0.62500 0.73683
 C2577 C 0.41588 0.58401 0.81782
 C2578 C 0.42346 0.57662 0.83215
 H2579 H 0.42771 0.58194 0.77489
 H2580 H 0.38858 0.57480 0.76149
 H2581 H 0.42198 0.62305 0.76831
 H2582 H 0.40823 0.62699 0.80785
 H2583 H 0.37484 0.57876 0.80104
 H2584 H 0.36912 0.61985 0.79443
 C2585 C 1.11018 0.89231 0.80110
 C2586 C 1.09918 0.87955 0.78559
 C2587 C 1.10940 0.89126 0.76902
 C2588 C 1.12054 0.90388 0.78424
 C2589 C 1.09313 0.90728 0.80048
 C2590 C 1.10335 0.91899 0.78391
 C2591 C 1.08200 0.89465 0.78526
 C2592 C 1.09235 0.90623 0.76842
 C2593 C 1.11836 0.88235 0.75146
 C2594 C 1.12565 0.87499 0.73698
 C2595 C 1.08399 0.91630 0.81790
 C2596 C 1.07648 0.92374 0.83223
 H2597 H 1.11741 0.88667 0.81472
 H2598 H 1.09758 0.86322 0.78608
 H2599 H 1.13650 0.90757 0.78363
 H2600 H 1.10497 0.93531 0.78344
 H2601 H 1.06605 0.89094 0.78589
 H2602 H 1.08511 0.91186 0.75480
 C2603 C 1.11460 0.39921 0.29963
 C2604 C 1.10702 0.38045 0.28890
 C2605 C 1.10961 0.39110 0.26898
 C2606 C 1.11734 0.40971 0.27943
 C2607 C 1.09332 0.40702 0.30049
 C2608 C 1.09592 0.41766 0.28057
 C2609 C 1.08560 0.38840 0.29005
 C2610 C 1.08833 0.39891 0.26986
 C2611 C 1.11857 0.38225 0.25139
 C2612 C 1.12584 0.37494 0.23688
 C2613 C 1.08416 0.41598 0.31792
 C2614 C 1.07662 0.42339 0.33226
 H2615 H 1.12531 0.39940 0.31206
 H2616 H 1.11170 0.36505 0.29211
 H2617 H 1.13049 0.41837 0.27487
 H2618 H 1.09125 0.43306 0.27736
 H2619 H 1.07247 0.37972 0.29463
 H2620 H 1.07761 0.39870 0.25743
 C2621 C 0.60673 0.88922 0.30101
 C2622 C 0.59531 0.88045 0.28320
 C2623 C 0.60936 0.89135 0.26908
 C2624 C 0.62094 0.89998 0.28661
 C2625 C 0.59303 0.90732 0.30054
 C2626 C 0.60709 0.91821 0.28643
 C2627 C 0.58147 0.89868 0.28301
 C2628 C 0.59566 0.90945 0.26863
 C2629 C 0.61834 0.88249 0.25149
 C2630 C 0.62563 0.87517 0.23698
 C2631 C 0.58384 0.91630 0.31796
 C2632 C 0.57628 0.92371 0.33229
 H2633 H 0.61119 0.88100 0.31452
 H2634 H 0.59058 0.86482 0.28169
 H2635 H 0.63727 0.90040 0.28789
 H2636 H 0.61185 0.93383 0.28796
 H2637 H 0.56514 0.89824 0.28175
 H2638 H 0.59121 0.91768 0.25513
 C2639 C 0.58751 0.38700 0.79193
 C2640 C 0.58743 0.39617 0.77092
 C2641 C 0.60948 0.39125 0.76896
 C2642 C 0.60971 0.38194 0.78970
 C2643 C 0.59323 0.40725 0.80045
 C2644 C 0.61529 0.40232 0.79851
 C2645 C 0.59301 0.41655 0.77971
 C2646 C 0.61520 0.41149 0.77749
 C2647 C 0.61841 0.38239 0.75136
 C2648 C 0.62566 0.37509 0.73682
 C2649 C 0.58409 0.41626 0.81788
 C2650 C 0.57657 0.42369 0.83221
 H2651 H 0.57605 0.37701 0.79807
 H2652 H 0.57606 0.39354 0.75938
 H2653 H 0.61669 0.36760 0.79360
 H2654 H 0.62664 0.40493 0.81006
 H2655 H 0.58604 0.43089 0.77581
 H2656 H 0.62670 0.42147 0.77137
 C2657 C 1.20873 1.11253 1.08647
 C2658 C 1.21054 1.11882 1.10844
 C2659 C 1.23092 1.10889 1.10933
 C2660 C 1.22939 1.10275 1.08751
 C2661 C 1.19945 1.09291 1.09315
 C2662 C 1.21984 1.08301 1.09406
 C2663 C 1.20097 1.09906 1.11498
 C2664 C 1.22163 1.08929 1.11602
 C2665 C 1.24853 1.11775 1.11822
 C2666 C 1.26307 1.12503 1.12542
 C2667 C 1.18202 1.08392 1.08404
 C2668 C 1.16769 1.07650 1.07655
 H2669 H 1.20323 1.12201 1.07424
 H2670 H 1.20693 1.13364 1.11447
 H2671 H 1.24125 1.10436 1.07629
 H2672 H 1.22344 1.06817 1.08804
 H2673 H 1.18909 1.09748 1.12619
 H2674 H 1.22712 1.07983 1.12828
 C2675 C 1.21566 0.58106 0.60360
 C2676 C 1.23124 0.59358 0.59244
 C2677 C 1.23065 0.60879 0.60929
 C2678 C 1.21534 0.59642 0.62060
 C2679 C 1.19926 0.59271 0.59309
 C2680 C 1.19865 0.60793 0.60994
 C2681 C 1.21457 0.60510 0.58180
 C2682 C 1.21425 0.62045 0.59879
 C2683 C 1.24819 0.61771 0.61820
 C2684 C 1.26267 0.62506 0.62543
 C2685 C 1.18188 0.58368 0.58397
 C2686 C 1.16759 0.57623 0.57647
 H2687 H 1.21603 0.56476 0.60548
 H2688 H 1.24484 0.58777 0.58535
 H2689 H 1.21585 0.59295 0.63665
 H2690 H 1.18506 0.61375 0.61704
 H2691 H 1.21405 0.60859 0.56575
 H2692 H 1.21387 0.63675 0.59694
 C2693 C 0.70608 1.08877 0.61433
 C2694 C 0.72747 1.08648 0.60654
 C2695 C 0.73057 1.10879 0.60932
 C2696 C 0.70947 1.11123 0.61726
 C2697 C 0.69912 1.09288 0.59309
 C2698 C 0.70221 1.11519 0.59587
 C2699 C 0.72023 1.09045 0.58516
 C2700 C 0.72360 1.11290 0.58808
 C2701 C 0.74819 1.11759 0.61819
 C2702 C 0.76276 1.12482 0.62536
 C2703 C 0.68173 1.08391 0.58394
 C2704 C 0.66743 1.07649 0.57643
 H2705 H 0.69866 1.07877 0.62503
 H2706 H 0.73804 1.07476 0.61104
 H2707 H 0.70525 1.11988 0.63056
 H2708 H 0.69163 1.12691 0.59140
 H2709 H 0.72445 1.08182 0.57186
 H2710 H 0.73099 1.12293 0.57740
 C2711 C 0.71768 0.59989 1.08158
 C2712 C 0.71778 0.61915 1.09396
 C2713 C 0.73094 0.60887 1.10936
 C2714 C 0.73111 0.58975 1.09712
 C2715 C 0.69949 0.59285 1.09318
 C2716 C 0.71264 0.58258 1.10859
 C2717 C 0.69931 0.61198 1.10542
 C2718 C 0.71275 0.60185 1.12098
 C2719 C 0.74854 0.61774 1.11827
 C2720 C 0.76306 0.62504 1.12549
 C2721 C 0.68206 0.58383 1.08409
 C2722 C 0.66773 0.57639 1.07662
 H2723 H 0.71951 0.59901 1.06528
 H2724 H 0.72009 0.63429 1.08805
 H2725 H 0.74436 0.58069 1.09380
 H2726 H 0.71032 0.56746 1.11453
 H2727 H 0.68606 0.62104 1.10875
 H2728 H 0.71091 0.60276 1.13728
 C2729 C 1.20410 0.90830 0.88473
 C2730 C 1.22571 0.91360 0.88999
 C2731 C 1.23068 0.89146 0.89075
 C2732 C 1.20934 0.88601 0.88534
 C2733 C 1.19922 0.90746 0.90693
 C2734 C 1.20417 0.88531 0.90767
 C2735 C 1.22056 0.91289 0.91232
 C2736 C 1.22578 0.89061 0.91293
 C2737 C 1.24827 0.88259 0.88190
 C2738 C 1.26281 0.87531 0.87471
 C2739 C 1.18182 0.91645 0.91606
 C2740 C 1.16751 0.92386 0.92358
 H2741 H 1.19497 0.91564 0.87323
 H2742 H 1.23476 0.92513 0.88261
 H2743 H 1.20496 0.87485 0.87414
 H2744 H 1.19512 0.87376 0.91502
 H2745 H 1.22495 0.92405 0.92351
 H2746 H 1.23490 0.88323 0.92442
 C2747 C 1.21574 0.39540 0.41798
 C2748 C 1.21550 0.37932 0.40168
 C2749 C 1.23125 0.39101 0.39023
 C2750 C 1.23175 0.40696 0.40640
 C2751 C 1.19973 0.40680 0.40660
 C2752 C 1.21548 0.41848 0.39514
 C2753 C 1.19922 0.39084 0.39043
 C2754 C 1.21524 0.40239 0.37884
 C2755 C 1.24891 0.38228 0.38125
 C2756 C 1.26350 0.37509 0.37399
 C2757 C 1.18226 0.41573 0.41578
 C2758 C 1.16790 0.42312 0.42331
 H2759 H 1.21575 0.39260 0.43417
 H2760 H 1.21570 0.36311 0.40425
 H2761 H 1.24531 0.41349 0.41287
 H2762 H 1.21528 0.43468 0.39253
 H2763 H 1.18566 0.38429 0.38396
 H2764 H 1.21522 0.40515 0.36264
 C2765 C 0.71517 0.89537 0.41822
 C2766 C 0.71489 0.87960 0.40161
 C2767 C 0.73094 0.89126 0.39058
 C2768 C 0.73149 0.90690 0.40705
 C2769 C 0.69948 0.90722 0.40686
 C2770 C 0.71553 0.91887 0.39582
 C2771 C 0.69892 0.89158 0.39039
 C2772 C 0.71524 0.90310 0.37921
 C2773 C 0.74852 0.88242 0.38157
 C2774 C 0.76301 0.87512 0.37424
 C2775 C 0.68203 0.91622 0.41598
 C2776 C 0.66768 0.92365 0.42345
 H2777 H 0.71493 0.89226 0.43435
 H2778 H 0.71483 0.86334 0.40388
 H2779 H 0.74506 0.91311 0.41382
 H2780 H 0.71558 0.93512 0.39353
 H2781 H 0.68535 0.88535 0.38364
 H2782 H 0.71547 0.90617 0.36307
 C2783 C 0.71535 0.39583 0.91819
 C2784 C 0.71505 0.37971 0.90193
 C2785 C 0.73084 0.39132 0.89047
 C2786 C 0.73140 0.40730 0.90660
 C2787 C 0.69940 0.40726 0.90677
 C2788 C 0.71519 0.41886 0.89530
 C2789 C 0.69882 0.39127 0.89064
 C2790 C 0.71489 0.40273 0.87904
 C2791 C 0.74843 0.38251 0.88151
 C2792 C 0.76295 0.37526 0.87423
 C2793 C 0.68200 0.41625 0.91592
 C2794 C 0.66769 0.42367 0.92344
 H2795 H 0.71532 0.39308 0.93439
 H2796 H 0.71519 0.36351 0.90455
 H2797 H 0.74499 0.41380 0.91306
 H2798 H 0.71504 0.43506 0.89266
 H2799 H 0.68524 0.38476 0.88418
 H2800 H 0.71491 0.40545 0.86283
 C2801 C 0.77948 0.90979 1.08535
 C2802 C 0.77612 0.88733 1.08822
 C2803 C 0.76914 0.89134 1.10948
 C2804 C 0.77224 0.91367 1.10675
 C2805 C 0.80060 0.90734 1.09326
 C2806 C 0.79363 0.91135 1.11452
 C2807 C 0.79751 0.88501 1.09599
 C2808 C 0.79026 0.88888 1.11739
 C2809 C 0.75156 0.88245 1.11839
 C2810 C 0.73706 0.87511 1.12563
 C2811 C 0.81802 0.91633 1.08413
 C2812 C 0.83235 0.92374 1.07663
 H2813 H 0.77526 0.91849 1.07207
 H2814 H 0.76874 0.87734 1.07750
 H2815 H 0.76167 0.92536 1.11128
 H2816 H 0.80105 0.92131 1.12524
 H2817 H 0.80810 0.87332 1.09148
 H2818 H 0.79449 0.88017 1.13067
 C2819 C 0.77953 0.40951 0.58513
 C2820 C 0.77614 0.38705 0.58800
 C2821 C 0.76916 0.39108 0.60925
 C2822 C 0.77228 0.41340 0.60652
 C2823 C 0.80064 0.40704 0.59304
 C2824 C 0.79366 0.41106 0.61430
 C2825 C 0.79753 0.38471 0.59578
 C2826 C 0.79026 0.38859 0.61718
 C2827 C 0.75156 0.38222 0.61816
 C2828 C 0.73703 0.37493 0.62539
 C2829 C 0.81807 0.41603 0.58393
 C2830 C 0.83241 0.42343 0.57644
 H2831 H 0.77532 0.41820 0.57184
 H2832 H 0.76875 0.37707 0.57729
 H2833 H 0.76172 0.42511 0.61103
 H2834 H 0.80108 0.42102 0.62502
 H2835 H 0.80810 0.37300 0.59129
 H2836 H 0.79447 0.37989 0.63047
 C2837 C 0.30080 0.89430 0.61184
 C2838 C 0.28282 0.90589 0.61997
 C2839 C 0.26901 0.89130 0.60943
 C2840 C 0.28671 0.87956 0.60144
 C2841 C 0.30045 0.90733 0.59320
 C2842 C 0.28664 0.89273 0.58267
 C2843 C 0.28275 0.91906 0.60120
 C2844 C 0.26867 0.90433 0.59080
 C2845 C 0.25146 0.88237 0.61835
 C2846 C 0.23699 0.87499 0.62561
 C2847 C 0.31787 0.91632 0.58407
 C2848 C 0.33220 0.92372 0.57656
 H2849 H 0.31419 0.89025 0.62039
 H2850 H 0.28105 0.91120 0.63541
 H2851 H 0.28813 0.86321 0.60165
 H2852 H 0.28842 0.88739 0.56724
 H2853 H 0.28134 0.93541 0.60101
 H2854 H 0.25528 0.90837 0.58223
 C2855 C 0.27956 0.40965 1.08514
 C2856 C 0.27619 0.38719 1.08801
 C2857 C 0.26922 0.39121 1.10926
 C2858 C 0.27232 0.41353 1.10653
 C2859 C 0.30068 0.40720 1.09304
 C2860 C 0.29371 0.41121 1.11430
 C2861 C 0.29758 0.38487 1.09578
 C2862 C 0.29033 0.38874 1.11718
 C2863 C 0.25165 0.38231 1.11819
 C2864 C 0.23716 0.37496 1.12544
 C2865 C 0.31810 0.41619 1.08393
 C2866 C 0.33243 0.42362 1.07643
 H2867 H 0.27535 0.41835 1.07185
 H2868 H 0.26880 0.37721 1.07730
 H2869 H 0.26176 0.42524 1.11105
 H2870 H 0.30113 0.42117 1.12503
 H2871 H 0.30816 0.37316 1.09129
 H2872 H 0.29454 0.38004 1.13046
 C2873 C 0.78543 1.10550 0.91809
 C2874 C 0.78566 1.12070 0.90092
 C2875 C 0.76927 1.10891 0.89058
 C2876 C 0.76876 1.09385 0.90761
 C2877 C 0.80075 1.09304 0.90690
 C2878 C 0.78435 1.08127 0.89655
 C2879 C 0.80127 1.10811 0.88987
 C2880 C 0.78459 1.09647 0.87939
 C2881 C 0.75166 1.11769 0.88159
 C2882 C 0.73713 1.12492 0.87429
 C2883 C 0.81817 1.08407 0.91604
 C2884 C 0.83250 1.07664 0.92353
 H2885 H 0.78599 1.10913 0.93409
 H2886 H 0.78600 1.13702 0.90261
 H2887 H 0.75521 1.08808 0.91481
 H2888 H 0.78403 1.06495 0.89484
 H2889 H 0.81483 1.11389 0.88268
 H2890 H 0.78406 1.09287 0.86337
 C2891 C 0.78547 0.60515 0.41803
 C2892 C 0.78571 0.62041 0.40093
 C2893 C 0.76922 0.60874 0.39060
 C2894 C 0.76872 0.59361 0.40757
 C2895 C 0.80070 0.59266 0.40674
 C2896 C 0.78422 0.58100 0.39641
 C2897 C 0.80122 0.60779 0.38977
 C2898 C 0.78446 0.59627 0.37930
 C2899 C 0.75160 0.61763 0.38173
 C2900 C 0.73706 0.62495 0.37452
 C2901 C 0.81814 0.58362 0.41583
 C2902 C 0.83248 0.57618 0.42331
 H2903 H 0.78607 0.60872 0.43405
 H2904 H 0.78613 0.63672 0.40267
 H2905 H 0.75516 0.58788 0.41478
 H2906 H 0.78380 0.56470 0.39463
 H2907 H 0.81478 0.61354 0.38256
 H2908 H 0.78386 0.59273 0.36327
 C2909 C 0.29517 1.09064 0.38476
 C2910 C 0.27355 1.08625 0.39083
 C2911 C 0.26920 1.10853 0.39040
 C2912 C 0.29053 1.11307 0.38418
 C2913 C 0.30062 1.09259 0.40674
 C2914 C 0.29627 1.11487 0.40630
 C2915 C 0.27928 1.08807 0.41295
 C2916 C 0.27467 1.11048 0.41238
 C2917 C 0.25164 1.11742 0.38146
 C2918 C 0.23715 1.12476 0.37421
 C2919 C 0.31803 1.08365 0.41595
 C2920 C 0.33235 1.07628 0.42352
 H2921 H 0.30380 1.08240 0.37350
 H2922 H 0.26403 1.07459 0.38436
 H2923 H 0.29494 1.12345 0.37224
 H2924 H 0.30581 1.12655 0.41274
 H2925 H 0.27486 1.07768 0.42488
 H2926 H 0.26604 1.11875 0.42363
 C2927 C 0.29528 0.59106 0.88487
 C2928 C 0.27368 0.58668 0.89100
 C2929 C 0.26934 0.60896 0.89063
 C2930 C 0.29066 0.61349 0.88435
 C2931 C 0.30080 0.59295 0.90684
 C2932 C 0.29647 0.61524 0.90646
 C2933 C 0.27948 0.58843 0.91311
 C2934 C 0.27488 0.61086 0.91260
 C2935 C 0.25175 0.61781 0.88171
 C2936 C 0.23722 0.62510 0.87448
 C2937 C 0.31821 0.58395 0.91598
 C2938 C 0.33254 0.57654 0.92349
 H2939 H 0.30387 0.58284 0.87357
 H2940 H 0.26412 0.57503 0.88455
 H2941 H 0.29505 0.62390 0.87244
 H2942 H 0.30606 0.62687 0.91290
 H2943 H 0.27511 0.57802 0.92504
 H2944 H 0.26633 0.61910 0.92392
 C2945 C 1.11507 1.20465 1.09136
 C2946 C 1.10925 1.22630 1.08669
 C2947 C 1.10926 1.23080 1.10897
 C2948 C 1.11522 1.20942 1.11379
 C2949 C 1.09307 1.19936 1.09292
 C2950 C 1.09308 1.20385 1.11521
 C2951 C 1.08713 1.22075 1.08812
 C2952 C 1.08727 1.22550 1.11054
 C2953 C 1.11818 1.24839 1.11781
 C2954 C 1.12546 1.26292 1.12504
 C2955 C 1.08397 1.18197 1.08389
 C2956 C 1.07648 1.16765 1.07643
 H2957 H 1.12641 1.19587 1.08340
 H2958 H 1.11602 1.23573 1.07508
 H2959 H 1.12688 1.20498 1.12445
 H2960 H 1.08635 1.19441 1.12684
 H2961 H 1.07547 1.22521 1.07746
 H2962 H 1.07595 1.23427 1.11853
 C2963 C 1.09173 0.72024 0.58422
 C2964 C 1.08689 0.72832 0.60510
 C2965 C 1.10909 0.73078 0.60900
 C2966 C 1.11406 0.72296 0.58826
 C2967 C 1.09297 0.69930 0.59294
 C2968 C 1.11518 0.70175 0.59685
 C2969 C 1.08801 0.70712 0.61369
 C2970 C 1.11035 0.70985 0.61774
 C2971 C 1.11797 0.74840 0.61785
 C2972 C 1.12522 0.76296 0.62507
 C2973 C 1.08391 0.68188 0.58390
 C2974 C 1.07644 0.66755 0.57644
 H2975 H 1.08397 0.72432 0.57033
 H2976 H 1.07536 0.73944 0.60860
 H2977 H 1.12489 0.72967 0.57791
 H2978 H 1.12673 0.69063 0.59338
 H2979 H 1.07721 0.70040 0.62407
 H2980 H 1.11812 0.70580 0.63163
 C2981 C 0.58353 1.22017 0.59293
 C2982 C 0.58894 1.22234 0.61510
 C2983 C 0.60904 1.23091 0.60903
 C2984 C 0.60377 1.22900 0.58700
 C2985 C 0.59286 1.19947 0.59297
 C2986 C 0.61297 1.20803 0.58691
 C2987 C 0.59813 1.20136 0.61500
 C2988 C 0.61838 1.21022 0.60908
 C2989 C 0.61798 1.24850 0.61788
 C2990 C 0.62527 1.26302 0.62511
 C2991 C 0.58378 1.18207 0.58392
 C2992 C 0.57630 1.16777 0.57644
 H2993 H 0.56910 1.22405 0.58620
 H2994 H 0.57917 1.22841 0.62680
 H2995 H 0.60620 1.24055 0.57558
 H2996 H 0.62277 1.20194 0.57524
 H2997 H 0.59573 1.18980 0.62643
 H2998 H 0.63281 1.20635 0.61583
 C2999 C 0.59173 0.72047 1.08421
 C3000 C 0.58691 0.72856 1.10509
 C3001 C 0.60911 0.73099 1.10899
 C3002 C 0.61407 0.72316 1.08824
 C3003 C 0.59295 0.69953 1.09293
 C3004 C 0.61516 0.70195 1.09683
 C3005 C 0.58800 0.70735 1.11368
 C3006 C 0.61035 0.71006 1.11773
 C3007 C 0.61803 0.74860 1.11786
 C3008 C 0.62530 0.76314 1.12510
 C3009 C 0.58386 0.68212 1.08389
 C3010 C 0.57637 0.66779 1.07644
 H3011 H 0.58398 0.72455 1.07032
 H3012 H 0.57538 0.73969 1.10859
 H3013 H 0.62490 0.72986 1.07789
 H3014 H 0.62670 0.69082 1.09336
 H3015 H 0.57720 0.70065 1.12406
 H3016 H 0.61812 0.70599 1.13161
 C3017 C 0.91608 1.21162 0.89010
 C3018 C 0.89573 1.21208 0.87966
 C3019 C 0.89067 1.23110 0.89099
 C3020 C 0.91088 1.23090 0.90129
 C3021 C 0.90688 1.19962 0.90706
 C3022 C 0.90180 1.21863 0.91839
 C3023 C 0.88666 1.19980 0.89676
 C3024 C 0.88145 1.21910 0.90795
 C3025 C 0.88177 1.24870 0.88207
 C3026 C 0.87453 1.26323 0.87475
 C3027 C 0.91602 1.18220 0.91608
 C3028 C 0.92355 1.16787 0.92352
 H3029 H 0.93041 1.20834 0.88283
 H3030 H 0.89311 1.20960 0.86364
 H3031 H 0.92073 1.24388 0.90306
 H3032 H 0.90439 1.22112 0.93441
 H3033 H 0.87679 1.18683 0.89498
 H3034 H 0.86710 1.22237 0.91518
 C3035 C 0.88724 0.70817 0.41331
 C3036 C 0.89662 0.72905 0.41287
 C3037 C 0.89098 0.73088 0.39093
 C3038 C 0.88146 0.71027 0.39122
 C3039 C 0.90717 0.69937 0.40696
 C3040 C 0.90152 0.70118 0.38501
 C3041 C 0.91667 0.71997 0.40666
 C3042 C 0.91089 0.72206 0.38458
 C3043 C 0.88208 0.74852 0.38206
 C3044 C 0.87485 0.76309 0.37480
 C3045 C 0.91630 0.68192 0.41598
 C3046 C 0.92380 0.66757 0.42342
 H3047 H 0.87760 0.70225 0.42520
 H3048 H 0.89449 0.74069 0.42424
 H3049 H 0.86687 0.70649 0.38476
 H3050 H 0.90362 0.68953 0.37364
 H3051 H 0.93126 0.72377 0.41310
 H3052 H 0.92051 0.72796 0.37266
 C3053 C 0.41631 1.22020 0.40636
 C3054 C 0.41020 1.22214 0.38436
 C3055 C 0.39044 1.23114 0.39094
 C3056 C 0.39641 1.22946 0.41281
 C3057 C 0.40668 1.19966 0.40699
 C3058 C 0.38691 1.20865 0.41357
 C3059 C 0.40070 1.20132 0.38512
 C3060 C 0.38079 1.21060 0.39156
 C3061 C 0.38149 1.24875 0.38204
 C3062 C 0.37420 1.26327 0.37473
 C3063 C 0.41582 1.18221 0.41601
 C3064 C 0.42333 1.16787 0.42345
 H3065 H 0.43102 1.22395 0.41254
 H3066 H 0.41966 1.22788 0.37224
 H3067 H 0.39455 1.24121 0.42411
 H3068 H 0.37742 1.20290 0.42567
 H3069 H 0.40253 1.18957 0.37381
 H3070 H 0.36608 1.20687 0.38537
 C3071 C 0.38695 0.70831 0.91347
 C3072 C 0.39627 0.72921 0.91305
 C3073 C 0.39058 0.73103 0.89112
 C3074 C 0.38112 0.71041 0.89140
 C3075 C 0.40689 0.69957 0.90708
 C3076 C 0.40119 0.70138 0.88514
 C3077 C 0.41634 0.72020 0.90678
 C3078 C 0.41051 0.72229 0.88471
 C3079 C 0.38162 0.74862 0.88228
 C3080 C 0.37431 0.76314 0.87503
 C3081 C 0.41603 0.68216 0.91607
 C3082 C 0.42354 0.66783 0.92351
 H3083 H 0.37735 0.70235 0.92538
 H3084 H 0.39413 0.74084 0.92442
 H3085 H 0.36653 0.70662 0.88496
 H3086 H 0.40330 0.68976 0.87375
 H3087 H 0.43092 0.72402 0.91320
 H3088 H 0.42007 0.72825 0.87278
 C3089 C 1.09513 0.79729 0.88469
 C3090 C 1.11676 0.79053 0.88785
 C3091 C 1.10942 0.76928 0.89104
 C3092 C 1.08793 0.77576 0.88774
 C3093 C 1.09324 0.80077 0.90708
 C3094 C 1.08591 0.77952 0.91026
 C3095 C 1.11473 0.79431 0.91038
 C3096 C 1.10753 0.77278 0.91343
 C3097 C 1.11832 0.75167 0.88216
 C3098 C 1.12558 0.73714 0.87489
 C3099 C 1.08413 0.81819 0.91610
 C3100 C 1.07663 0.83252 0.92354
 H3101 H 1.08995 0.80756 0.87297
 H3102 H 1.12955 0.79486 0.87854
 H3103 H 1.07701 0.76795 0.87833
 H3104 H 1.07312 0.77520 0.91957
 H3105 H 1.12565 0.80214 0.91977
 H3106 H 1.11274 0.76253 0.92515
 C3107 C 1.09675 0.29774 0.38462
 C3108 C 1.11772 0.28984 0.38930
 C3109 C 1.10922 0.26885 0.39084
 C3110 C 1.08840 0.27647 0.38602
 C3111 C 1.09307 0.30032 0.40691
 C3112 C 1.08458 0.27933 0.40843
 C3113 C 1.11389 0.29272 0.41173
 C3114 C 1.10554 0.27145 0.41312
 C3115 C 1.11811 0.25125 0.38198
 C3116 C 1.12537 0.23671 0.37474
 C3117 C 1.08398 0.31774 0.41595
 C3118 C 1.07650 0.33206 0.42341
 H3119 H 1.09306 0.30874 0.37299
 H3120 H 1.13145 0.29394 0.38132
 H3121 H 1.07803 0.26958 0.37534
 H3122 H 1.07085 0.27521 0.41640
 H3123 H 1.12429 0.29961 0.42238
 H3124 H 1.10926 0.26045 0.42474
 C3125 C 0.60522 0.78549 0.41847
 C3126 C 0.59381 0.76874 0.40787
 C3127 C 0.60907 0.76929 0.39106
 C3128 C 0.62063 0.78577 0.40153
 C3129 C 0.59286 0.80077 0.40709
 C3130 C 0.60813 0.80134 0.39027
 C3131 C 0.58131 0.78428 0.39661
 C3132 C 0.59672 0.78457 0.37966
 C3133 C 0.61801 0.75169 0.38220
 C3134 C 0.62531 0.73716 0.37495
 C3135 C 0.58375 0.81820 0.41611
 C3136 C 0.57626 0.83253 0.42356
 H3137 H 0.60864 0.78607 0.43453
 H3138 H 0.58801 0.75514 0.41501
 H3139 H 0.63690 0.78618 0.40344
 H3140 H 0.61394 0.81492 0.38312
 H3141 H 0.56505 0.78387 0.39466
 H3142 H 0.59334 0.78398 0.36359
 C3143 C 0.59377 0.29634 0.88467
 C3144 C 0.61579 0.29042 0.88652
 C3145 C 0.60944 0.26907 0.89093
 C3146 C 0.58757 0.27471 0.88893
 C3147 C 0.59330 0.30055 0.90701
 C3148 C 0.58696 0.27920 0.91140
 C3149 C 0.61518 0.29492 0.90900
 C3150 C 0.60898 0.27329 0.91326
 C3151 C 0.61830 0.25145 0.88200
 C3152 C 0.62552 0.23691 0.87468
 C3153 C 0.58419 0.31799 0.91603
 C3154 C 0.57668 0.33233 0.92346
 H3155 H 0.58745 0.30600 0.87300
 H3156 H 0.62776 0.29482 0.87620
 H3157 H 0.57632 0.26621 0.88058
 H3158 H 0.57501 0.27478 0.92173
 H3159 H 0.62645 0.30343 0.91733
 H3160 H 0.61534 0.26364 0.92492
 C3161 C 0.89366 0.78624 1.08199
 C3162 C 0.90515 0.76878 1.09133
 C3163 C 0.89098 0.76923 1.10907
 C3164 C 0.87934 0.78643 1.09987
 C3165 C 0.90719 0.80071 1.09305
 C3166 C 0.89301 0.80118 1.11079
 C3167 C 0.91881 0.78351 1.10226
 C3168 C 0.90450 0.78370 1.12014
 C3169 C 0.88203 0.75162 1.11791
 C3170 C 0.87473 0.73709 1.12515
 C3171 C 0.91630 0.81813 1.08402
 C3172 C 0.92379 0.83246 1.07657
 H3173 H 0.88928 0.78750 1.06620
 H3174 H 0.91005 0.75526 1.08342
 H3175 H 0.86301 0.78742 1.09900
 H3176 H 0.88811 0.81470 1.11871
 H3177 H 0.93514 0.78253 1.10316
 H3178 H 0.90884 0.78246 1.13594
 C3179 C 0.89336 0.28602 0.58173
 C3180 C 0.90479 0.26852 0.59108
 C3181 C 0.89059 0.26901 0.60880
 C3182 C 0.87901 0.28624 0.59959
 C3183 C 0.90691 0.30044 0.59282
 C3184 C 0.89270 0.30095 0.61054
 C3185 C 0.91847 0.28321 0.60205
 C3186 C 0.90413 0.28344 0.61990
 C3187 C 0.88160 0.25145 0.61765
 C3188 C 0.87427 0.23696 0.62493
 C3189 C 0.91609 0.31784 0.58384
 C3190 C 0.92362 0.33215 0.57641
 H3191 H 0.88901 0.28730 0.56594
 H3192 H 0.90965 0.25499 0.58317
 H3193 H 0.86268 0.28727 0.59869
 H3194 H 0.88782 0.31447 0.61846
 H3195 H 0.93480 0.28218 0.60297
 H3196 H 0.90843 0.28216 0.63570
 C3197 C 0.39968 0.79944 0.61452
 C3198 C 0.38037 0.78954 0.60728
 C3199 C 0.39047 0.76927 0.60886
 C3200 C 0.40963 0.77889 0.61625
 C3201 C 0.40675 0.80076 0.59296
 C3202 C 0.41683 0.78049 0.59455
 C3203 C 0.38758 0.79116 0.58557
 C3204 C 0.39753 0.77061 0.58730
 C3205 C 0.38153 0.75165 0.61767
 C3206 C 0.37426 0.73710 0.62489
 C3207 C 0.41591 0.81819 0.58400
 C3208 C 0.42343 0.83251 0.57659
 H3209 H 0.40065 0.81148 0.62563
 H3210 H 0.36527 0.79303 0.61263
 H3211 H 0.41859 0.77363 0.62897
 H3212 H 0.43193 0.77697 0.58922
 H3213 H 0.37859 0.79641 0.57288
 H3214 H 0.39653 0.75856 0.57621
 C3215 C 0.40999 0.29442 1.11456
 C3216 C 0.38750 0.29057 1.11609
 C3217 C 0.39094 0.26929 1.10895
 C3218 C 0.41329 0.27287 1.10757
 C3219 C 0.40719 0.30074 1.09290
 C3220 C 0.41062 0.27946 1.08577
 C3221 C 0.38484 0.29717 1.09428
 C3222 C 0.38813 0.27561 1.08729
 C3223 C 0.38197 0.25170 1.11781
 C3224 C 0.37465 0.23719 1.12507
 C3225 C 0.41633 0.31815 1.08387
 C3226 C 0.42383 0.33248 1.07643
 H3227 H 0.41906 0.30237 1.12569
 H3228 H 0.37788 0.29492 1.12865
 H3229 H 0.42488 0.26270 1.11314
 H3230 H 0.42023 0.27510 1.07320
 H3231 H 0.37323 0.30736 1.08874
 H3232 H 0.37903 0.26769 1.07618
 C3233 C 1.08623 1.08951 0.77881
 C3234 C 1.08708 1.11200 0.77461
 C3235 C 1.10886 1.10979 0.76867
 C3236 C 1.10814 1.08743 0.77261
 C3237 C 1.09289 1.09347 0.80017
 C3238 C 1.11467 1.09126 0.79424
 C3239 C 1.09362 1.11583 0.79625
 C3240 C 1.11554 1.11376 0.79003
 C3241 C 1.11772 1.11880 0.75107
 C3242 C 1.12504 1.12613 0.73656
 C3243 C 1.08389 1.08431 0.81763
 C3244 C 1.07646 1.07680 0.83198
 H3245 H 1.07408 1.07942 0.77442
 H3246 H 1.07583 1.12063 0.76637
 H3247 H 1.11422 1.07584 0.76271
 H3248 H 1.12593 1.08265 0.80251
 H3249 H 1.08757 1.12742 0.80617
 H3250 H 1.12769 1.12383 0.79443
 C3251 C 1.09821 0.61540 0.29813
 C3252 C 1.11851 0.60977 0.28917
 C3253 C 1.10911 0.60969 0.26847
 C3254 C 1.08896 0.61546 0.27716
 C3255 C 1.09321 0.59332 0.30003
 C3256 C 1.08383 0.59325 0.27933
 C3257 C 1.11337 0.58755 0.29135
 C3258 C 1.10412 0.58761 0.27039
 C3259 C 1.11790 0.61870 0.25081
 C3260 C 1.12514 0.62600 0.23623
 C3261 C 1.08425 0.58413 0.31752
 C3262 C 1.07685 0.57659 0.33190
 H3263 H 1.09572 0.62675 0.30972
 H3264 H 1.13287 0.61666 0.29302
 H3265 H 1.07900 0.62704 0.27115
 H3266 H 1.06947 0.58636 0.27548
 H3267 H 1.12334 0.57600 0.29738
 H3268 H 1.10664 0.57626 0.25881
 C3269 C 0.58199 1.10732 0.28576
 C3270 C 0.59998 1.12146 0.28592
 C3271 C 0.60898 1.10975 0.26866
 C3272 C 0.59114 1.09576 0.26823
 C3273 C 0.59291 1.09361 0.30022
 C3274 C 0.60193 1.08192 0.28295
 C3275 C 0.61076 1.10761 0.30066
 C3276 C 0.61992 1.09605 0.28312
 C3277 C 0.61791 1.11861 0.25100
 C3278 C 0.62524 1.12582 0.23644
 C3279 C 0.58388 1.08450 0.31770
 C3280 C 0.57644 1.07698 0.33206
 H3281 H 0.56630 1.11188 0.28704
 H3282 H 0.59927 1.13782 0.28695
 H3283 H 0.58316 1.09099 0.25471
 H3284 H 0.60267 1.06556 0.28191
 H3285 H 0.61875 1.11240 0.31417
 H3286 H 0.63562 1.09154 0.28183
 C3287 C 0.58876 0.61453 0.79347
 C3288 C 0.61121 0.61742 0.79016
 C3289 C 0.60886 0.60949 0.76900
 C3290 C 0.58655 0.60675 0.77202
 C3291 C 0.59278 0.59330 0.80048
 C3292 C 0.59045 0.58539 0.77931
 C3293 C 0.61509 0.59605 0.79747
 C3294 C 0.61289 0.58828 0.77603
 C3295 C 0.61775 0.61835 0.75137
 C3296 C 0.62505 0.62555 0.73680
 C3297 C 0.58374 0.58417 0.81790
 C3298 C 0.57629 0.57665 0.83222
 H3299 H 0.57875 0.62521 0.80085
 H3300 H 0.61984 0.63069 0.79443
 H3301 H 0.57492 0.61127 0.76137
 H3302 H 0.58183 0.57212 0.77504
 H3303 H 0.62673 0.59156 0.80813
 H3304 H 0.62293 0.57761 0.76866
 C3305 C 0.89003 0.91590 0.78872
 C3306 C 0.90114 0.91102 0.76929
 C3307 C 0.89122 0.89061 0.76904
 C3308 C 0.87997 0.89535 0.78821
 C3309 C 0.90719 0.90688 0.80054
 C3310 C 0.89726 0.88647 0.80031
 C3311 C 0.91843 0.90213 0.78138
 C3312 C 0.90837 0.88158 0.78087
 C3313 C 0.88236 0.88166 0.75144
 C3314 C 0.87504 0.87442 0.73690
 C3315 C 0.91619 0.91603 0.81797
 C3316 C 0.92362 0.92355 0.83230
 H3317 H 0.88258 0.93010 0.79217
 H3318 H 0.90265 0.92105 0.75637
 H3319 H 0.86405 0.89246 0.79083
 H3320 H 0.89574 0.87648 0.81327
 H3321 H 0.93435 0.90502 0.77879
 H3322 H 0.91581 0.86736 0.77747
 C3323 C 0.88586 0.40981 0.29307
 C3324 C 0.89349 0.41230 0.27160
 C3325 C 0.89116 0.38994 0.26844
 C3326 C 0.88339 0.38730 0.28965
 C3327 C 0.90715 0.40616 0.29998
 C3328 C 0.90483 0.38378 0.29684
 C3329 C 0.91492 0.40878 0.27877
 C3330 C 0.91246 0.38627 0.27535
 C3331 C 0.88219 0.38108 0.25081
 C3332 C 0.87481 0.37391 0.23626
 C3333 C 0.91611 0.41533 0.31745
 C3334 C 0.92349 0.42288 0.33182
 H3335 H 0.87499 0.41956 0.30053
 H3336 H 0.88873 0.42395 0.26104
 H3337 H 0.87033 0.37836 0.29394
 H3338 H 0.90957 0.37216 0.30743
 H3339 H 0.92798 0.41772 0.27450
 H3340 H 0.92333 0.37649 0.26793
 C3341 C 0.38519 0.90882 0.29370
 C3342 C 0.39204 0.91236 0.27211
 C3343 C 0.39108 0.88998 0.26839
 C3344 C 0.38408 0.88629 0.28971
 C3345 C 0.40686 0.90639 0.29994
 C3346 C 0.40589 0.88400 0.29624
 C3347 C 0.41384 0.91006 0.27862
 C3348 C 0.41275 0.88754 0.27465
 C3349 C 0.38232 0.88099 0.25071
 C3350 C 0.37511 0.87374 0.23611
 C3351 C 0.41576 0.91561 0.31743
 C3352 C 0.42313 0.92317 0.33180
 H3353 H 0.37393 0.91765 0.30172
 H3354 H 0.38625 0.92394 0.26201
 H3355 H 0.37174 0.87641 0.29409
 H3356 H 0.41165 0.87242 0.30636
 H3357 H 0.42618 0.91994 0.27424
 H3358 H 0.42400 0.87868 0.26664
 C3359 C 0.39777 0.41843 0.78328
 C3360 C 0.40877 0.40493 0.76842
 C3361 C 0.39126 0.39051 0.76893
 C3362 C 0.38012 0.40388 0.78352
 C3363 C 0.40717 0.40685 0.80042
 C3364 C 0.38966 0.39244 0.80094
 C3365 C 0.41831 0.39348 0.78583
 C3366 C 0.40066 0.37893 0.78608
 C3367 C 0.38243 0.38150 0.75134
 C3368 C 0.37514 0.37417 0.73683
 C3369 C 0.41616 0.41601 0.81786
 C3370 C 0.42360 0.42353 0.83219
 H3371 H 0.39664 0.43477 0.78234
 H3372 H 0.41656 0.40998 0.75488
 H3373 H 0.36431 0.40804 0.78236
 H3374 H 0.38187 0.38739 0.81449
 H3375 H 0.43411 0.38929 0.78700
 H3376 H 0.40175 0.36258 0.78703
 C3377 C 1.11071 0.89264 1.19933
 C3378 C 1.11967 0.90403 1.21707
 C3379 C 1.10869 0.89012 1.23128
 C3380 C 1.09988 0.87857 1.21383
 C3381 C 1.09280 0.90656 1.19981
 C3382 C 1.08182 0.89263 1.21402
 C3383 C 1.10162 0.91809 1.21726
 C3384 C 1.09077 0.90404 1.23174
 C3385 C 1.11752 0.88108 1.24888
 C3386 C 1.12481 0.87378 1.26341
 C3387 C 1.08386 0.91581 1.18238
 C3388 C 1.07648 0.92339 1.16804
 H3389 H 1.11882 0.88805 1.18581
 H3390 H 1.13533 0.90862 1.21850
 H3391 H 1.09928 0.86222 1.21260
 H3392 H 1.06616 0.88804 1.21255
 H3393 H 1.10224 0.93444 1.21845
 H3394 H 1.08266 0.90865 1.24525
 C3395 C 1.08546 0.40977 0.72076
 C3396 C 1.08734 0.38725 0.72445
 C3397 C 1.10881 0.39038 0.73101
 C3398 C 1.10708 0.41276 0.72757
 C3399 C 1.09285 0.40666 0.69950
 C3400 C 1.11434 0.40978 0.70604
 C3401 C 1.09460 0.38427 0.70292
 C3402 C 1.11622 0.38725 0.70975
 C3403 C 1.11761 0.38144 0.74867
 C3404 C 1.12484 0.37421 0.76326
 C3405 C 1.08383 0.41580 0.68207
 C3406 C 1.07637 0.42331 0.66773
 H3407 H 1.07272 0.41914 0.72507
 H3408 H 1.07633 0.37788 0.73220
 H3409 H 1.11232 0.42439 0.73789
 H3410 H 1.12535 0.41913 0.69826
 H3411 H 1.08939 0.37266 0.69257
 H3412 H 1.12897 0.37789 0.70543
 C3413 C 0.61063 0.89316 0.69907
 C3414 C 0.61961 0.90467 0.71672
 C3415 C 0.60874 0.89078 0.73103
 C3416 C 0.59991 0.87911 0.71367
 C3417 C 0.59265 0.90700 0.69956
 C3418 C 0.58180 0.89310 0.71387
 C3419 C 0.60149 0.91865 0.71692
 C3420 C 0.59077 0.90462 0.73151
 C3421 C 0.61768 0.88184 0.74860
 C3422 C 0.62506 0.87456 0.76309
 C3423 C 0.58361 0.91612 0.68214
 C3424 C 0.57615 0.92364 0.66782
 H3425 H 0.61871 0.88854 0.68555
 H3426 H 0.63526 0.90931 0.71809
 H3427 H 0.59937 0.86275 0.71253
 H3428 H 0.56615 0.88843 0.71247
 H3429 H 0.60206 0.93501 0.71804
 H3430 H 0.58268 0.90924 0.74503
 C3431 C 0.60605 0.38773 1.19971
 C3432 C 0.62071 0.39804 1.21395
 C3433 C 0.60894 0.38994 1.23162
 C3434 C 0.59443 0.37947 1.21765
 C3435 C 0.59301 0.40632 1.20010
 C3436 C 0.58125 0.39820 1.21777
 C3437 C 0.60753 0.41677 1.21406
 C3438 C 0.59590 0.40852 1.23199
 C3439 C 0.61781 0.38093 1.24925
 C3440 C 0.62512 0.37363 1.26379
 C3441 C 0.58405 0.41553 1.18262
 C3442 C 0.57666 0.42310 1.16826
 H3443 H 0.61015 0.37926 1.18625
 H3444 H 0.63704 0.39787 1.21256
 H3445 H 0.58913 0.36403 1.21931
 H3446 H 0.56492 0.39835 1.21914
 H3447 H 0.61285 0.43220 1.21239
 H3448 H 0.59181 0.41698 1.24545
 C3449 C 0.89761 1.11362 1.19971
 C3450 C 0.88013 1.10482 1.21160
 C3451 C 0.89126 1.10930 1.23088
 C3452 C 0.90859 1.11825 1.21928
 C3453 C 0.90735 1.09311 1.19943
 C3454 C 0.91847 1.09760 1.21871
 C3455 C 0.89001 1.08417 1.21102
 C3456 C 0.90100 1.08879 1.23058
 C3457 C 0.88235 1.11818 1.24846
 C3458 C 0.87503 1.12540 1.26299
 C3459 C 0.91640 1.08399 1.18204
 C3460 C 0.92386 1.07646 1.16774
 H3461 H 0.89630 1.12373 1.18683
 H3462 H 0.86426 1.10791 1.20889
 H3463 H 0.91611 1.13237 1.22287
 H3464 H 0.93434 1.09454 1.22142
 H3465 H 0.88245 1.07007 1.20741
 H3466 H 0.90229 1.07868 1.24346
 C3467 C 0.91293 0.61346 0.70768
 C3468 C 0.89073 0.61841 0.71011
 C3469 C 0.89128 0.60938 0.73098
 C3470 C 0.91333 0.60457 0.72882
 C3471 C 0.90725 0.59305 0.69951
 C3472 C 0.90778 0.58404 0.72037
 C3473 C 0.88518 0.59786 0.70165
 C3474 C 0.88559 0.58898 0.72279
 C3475 C 0.88243 0.61834 0.74858
 C3476 C 0.87514 0.62560 0.76312
 C3477 C 0.91623 0.58387 0.68209
 C3478 C 0.92366 0.57632 0.66776
 H3479 H 0.92425 0.62343 0.70125
 H3480 H 0.88361 0.63264 0.70610
 H3481 H 0.92482 0.60744 0.74017
 H3482 H 0.91489 0.56980 0.72438
 H3483 H 0.87370 0.59502 0.69029
 H3484 H 0.87424 0.57902 0.72919
 C3485 C 0.40323 1.11547 0.70167
 C3486 C 0.38242 1.11063 0.70986
 C3487 C 0.39117 1.10951 0.73080
 C3488 C 0.41183 1.11450 0.72290
 C3489 C 0.40719 1.09323 0.69936
 C3490 C 0.41592 1.09212 0.72031
 C3491 C 0.38652 1.08825 0.70726
 C3492 C 0.39512 1.08727 0.72848
 C3493 C 0.38229 1.11844 0.74839
 C3494 C 0.37500 1.12567 0.76292
 C3495 C 0.41619 1.08406 0.68197
 C3496 C 0.42362 1.07652 0.66766
 H3497 H 0.40664 1.12697 0.69045
 H3498 H 0.36854 1.11836 0.70580
 H3499 H 0.42213 1.12540 0.72952
 H3500 H 0.42981 1.08441 0.72437
 H3501 H 0.37620 1.07738 0.70062
 H3502 H 0.39169 1.07577 0.73969
 C3503 C 0.38484 0.59512 1.20321
 C3504 C 0.38802 0.58807 1.22480
 C3505 C 0.39125 0.60964 1.23110
 C3506 C 0.38792 0.61684 1.20979
 C3507 C 0.40715 0.59330 1.19960
 C3508 C 0.41038 0.61488 1.20589
 C3509 C 0.41046 0.58611 1.22092
 C3510 C 0.41356 0.60782 1.22747
 C3511 C 0.38244 0.61864 1.24872
 C3512 C 0.37519 0.62593 1.26326
 C3513 C 0.41613 0.58412 1.18216
 C3514 C 0.42354 0.57659 1.16782
 H3515 H 0.37311 0.58982 1.19305
 H3516 H 0.37872 0.57715 1.23277
 H3517 H 0.37855 0.62959 1.20542
 H3518 H 0.41965 0.62581 1.19791
 H3519 H 0.41982 0.57337 1.22530
 H3520 H 0.42528 0.61315 1.23763
 C3521 C 1.08188 1.21908 0.90198
 C3522 C 1.09926 1.23100 0.91088
 C3523 C 1.10911 1.23138 0.89040
 C3524 C 1.09187 1.21972 0.88136
 C3525 C 1.09306 1.19985 0.90656
 C3526 C 1.10291 1.20021 0.88608
 C3527 C 1.11030 1.21150 0.91559
 C3528 C 1.12029 1.21215 0.89497
 C3529 C 1.11799 1.24904 0.88155
 C3530 C 1.12528 1.26363 0.87438
 C3531 C 1.08403 1.18238 0.91567
 C3532 C 1.07660 1.16802 0.92317
 H3533 H 1.06599 1.22174 0.90495
 H3534 H 1.09785 1.24384 0.92100
 H3535 H 1.08439 1.22327 0.86718
 H3536 H 1.10434 1.18736 0.87597
 H3537 H 1.11781 1.20793 0.92975
 H3538 H 1.13619 1.20948 0.89198
 C3539 C 1.09106 0.70515 0.38470
 C3540 C 1.08680 0.72678 0.39089
 C3541 C 1.10907 0.73101 0.39049
 C3542 C 1.11348 0.70965 0.38416
 C3543 C 1.09297 0.69952 0.40665
 C3544 C 1.11525 0.70373 0.40625
 C3545 C 1.08858 0.72087 0.41298
 C3546 C 1.11099 0.72536 0.41244
 C3547 C 1.11799 0.74861 0.38160
 C3548 C 1.12534 0.76314 0.37438
 C3549 C 1.08392 0.68208 0.41574
 C3550 C 1.07648 0.66773 0.42322
 H3551 H 1.08278 0.69662 0.37339
 H3552 H 1.07518 0.73643 0.38449
 H3553 H 1.12383 0.70523 0.37221
 H3554 H 1.12685 0.69406 0.41265
 H3555 H 1.07825 0.72528 0.42494
 H3556 H 1.11929 0.73385 0.42376
 C3557 C 0.60146 1.20047 0.38556
 C3558 C 0.59080 1.22045 0.38207
 C3559 C 0.60893 1.23129 0.39033
 C3560 C 0.61973 1.21159 0.39368
 C3561 C 0.59286 1.19983 0.40660
 C3562 C 0.61100 1.21066 0.41486
 C3563 C 0.58207 1.21952 0.40324
 C3564 C 0.60034 1.23063 0.41137
 C3565 C 0.61783 1.24889 0.38136
 C3566 C 0.62514 1.26342 0.37408
 C3567 C 0.58381 1.18239 0.41572
 C3568 C 0.57634 1.16805 0.42322
 H3569 H 0.60185 1.18788 0.37504
 H3570 H 0.58259 1.22464 0.36848
 H3571 H 0.63532 1.20853 0.38964
 H3572 H 0.61923 1.20644 0.42842
 H3573 H 0.56649 1.22258 0.40727
 H3574 H 0.59997 1.24320 0.42190
 C3575 C 0.59478 0.71964 0.91717
 C3576 C 0.61633 0.72102 0.90963
 C3577 C 0.60881 0.73101 0.89065
 C3578 C 0.58740 0.72990 0.89804
 C3579 C 0.59275 0.69953 0.90684
 C3580 C 0.58524 0.70951 0.88785
 C3581 C 0.61417 0.70063 0.89944
 C3582 C 0.60680 0.71090 0.88031
 C3583 C 0.61775 0.74859 0.88174
 C3584 C 0.62513 0.76308 0.87449
 C3585 C 0.58373 0.68209 0.91595
 C3586 C 0.57631 0.66775 0.92345
 H3587 H 0.58975 0.72303 0.93243
 H3588 H 0.62922 0.72594 0.91849
 H3589 H 0.57647 0.74212 0.89737
 H3590 H 0.57237 0.70457 0.87898
 H3591 H 0.62509 0.68841 0.90010
 H3592 H 0.61185 0.70751 0.86506
 C3593 C 0.88505 1.20236 1.09616
 C3594 C 0.88904 1.20968 1.11751
 C3595 C 0.89133 1.23082 1.10951
 C3596 C 0.88720 1.22377 1.08831
 C3597 C 0.90734 1.19935 1.09328
 C3598 C 0.90963 1.22049 1.08529
 C3599 C 0.91147 1.20638 1.11449
 C3600 C 0.91363 1.22779 1.10664
 C3601 C 0.88243 1.24841 1.11842
 C3602 C 0.87513 1.26295 1.12564
 C3603 C 0.91635 1.18194 1.08414
 C3604 C 0.92379 1.16763 1.07662
 H3605 H 0.87339 1.19171 1.09176
 H3606 H 0.88047 1.20542 1.13086
 H3607 H 0.87711 1.23111 1.07764
 H3608 H 0.91817 1.22471 1.07193
 H3609 H 0.92154 1.19899 1.12515
 H3610 H 0.92532 1.23841 1.11104
 C3611 C 0.88761 0.70863 0.58652
 C3612 C 0.88133 0.71040 0.60850
 C3613 C 0.89121 0.73082 0.60939
 C3614 C 0.89736 0.72931 0.58756
 C3615 C 0.90720 0.69932 0.59317
 C3616 C 0.91708 0.71973 0.59408
 C3617 C 0.90106 0.70081 0.61501
 C3618 C 0.91080 0.72150 0.61606
 C3619 C 0.88233 0.74843 0.61831
 C3620 C 0.87501 0.76297 0.62552
 C3621 C 0.91619 0.68187 0.58403
 C3622 C 0.92360 0.66752 0.57652
 H3623 H 0.87817 0.70312 0.57429
 H3624 H 0.86652 0.70675 0.61452
 H3625 H 0.89574 0.74120 0.57634
 H3626 H 0.93189 0.72335 0.58805
 H3627 H 0.90266 0.68889 0.62621
 H3628 H 0.92024 0.72697 0.62831
 C3629 C 0.38458 1.20286 0.59629
 C3630 C 0.38858 1.21020 0.61763
 C3631 C 0.39090 1.23133 0.60962
 C3632 C 0.38675 1.22426 0.58842
 C3633 C 0.40687 1.19980 0.59340
 C3634 C 0.40918 1.22094 0.58540
 C3635 C 0.41101 1.20686 0.61461
 C3636 C 0.41319 1.22826 0.60674
 C3637 C 0.38200 1.24895 0.61855
 C3638 C 0.37467 1.26347 0.62582
 C3639 C 0.41586 1.18231 0.58429
 C3640 C 0.42327 1.16793 0.57681
 H3641 H 0.37288 1.19224 0.59192
 H3642 H 0.38001 1.20599 0.63099
 H3643 H 0.37668 1.23161 0.57775
 H3644 H 0.41773 1.22516 0.57204
 H3645 H 0.42106 1.19950 0.62531
 H3646 H 0.42487 1.23888 0.61113
 C3647 C 0.38469 0.70308 1.09596
 C3648 C 0.38841 0.71015 1.11745
 C3649 C 0.39108 0.73134 1.10971
 C3650 C 0.38721 0.72455 1.08837
 C3651 C 0.40700 0.69983 1.09342
 C3652 C 0.40965 0.72102 1.08569
 C3653 C 0.41085 0.70661 1.11477
 C3654 C 0.41338 0.72807 1.10717
 C3655 C 0.38230 0.74900 1.11867
 C3656 C 0.37508 0.76359 1.12591
 C3657 C 0.41599 0.68237 1.08427
 C3658 C 0.42343 0.66803 1.07676
 H3659 H 0.37298 0.69262 1.09127
 H3660 H 0.37957 0.70586 1.13061
 H3661 H 0.37738 0.73210 1.07761
 H3662 H 0.41846 0.72531 1.07252
 H3663 H 0.42065 0.69903 1.12554
 H3664 H 0.42509 0.73852 1.11188
 C3665 C 0.89390 0.80110 0.88851
 C3666 C 0.90550 0.78329 0.87997
 C3667 C 0.89126 0.76921 0.89066
 C3668 C 0.87951 0.78673 0.89905
 C3669 C 0.90726 0.80067 0.90688
 C3670 C 0.89301 0.78659 0.91756
 C3671 C 0.91899 0.78315 0.89849
 C3672 C 0.90461 0.76880 0.90903
 C3673 C 0.88239 0.75161 0.88175
 C3674 C 0.87509 0.73707 0.87452
 C3675 C 0.91627 0.81810 0.91601
 C3676 C 0.92369 0.83243 0.92351
 H3677 H 0.88958 0.81457 0.88017
 H3678 H 0.91054 0.78175 0.86442
 H3679 H 0.86318 0.78801 0.89917
 H3680 H 0.88794 0.78816 0.93311
 H3681 H 0.93533 0.78189 0.89834
 H3682 H 0.90893 0.75534 0.91738
 C3683 C 0.89813 0.29982 0.38584
 C3684 C 0.90900 0.28009 0.38175
 C3685 C 0.89130 0.26883 0.39041
 C3686 C 0.88029 0.28828 0.39434
 C3687 C 0.90733 0.30027 0.40662
 C3688 C 0.88962 0.28902 0.41526
 C3689 C 0.91833 0.28082 0.40267
 C3690 C 0.90049 0.26930 0.41118
 C3691 C 0.88238 0.25125 0.38153
 C3692 C 0.87504 0.23673 0.37434
 C3693 C 0.91631 0.31769 0.41577
 C3694 C 0.92372 0.33201 0.42331
 H3695 H 0.89724 0.31257 0.37552
 H3696 H 0.91687 0.27623 0.36787
 H3697 H 0.86454 0.29115 0.39079
 H3698 H 0.88172 0.29290 0.42912
 H3699 H 0.93408 0.27796 0.40619
 H3700 H 0.90137 0.25655 0.42150
 C3701 C 0.39774 0.78303 0.41835
 C3702 C 0.37986 0.78321 0.40407
 C3703 C 0.39086 0.76872 0.39047
 C3704 C 0.40861 0.76829 0.40462
 C3705 C 0.40686 0.80024 0.40666
 C3706 C 0.41786 0.78576 0.39305
 C3707 C 0.38911 0.80069 0.39251
 C3708 C 0.39997 0.78593 0.37876
 C3709 C 0.38197 0.75110 0.38158
 C3710 C 0.37466 0.73655 0.37435
 C3711 C 0.41585 0.81771 0.41576
 C3712 C 0.42326 0.83208 0.42326
 H3713 H 0.39689 0.78202 0.43473
 H3714 H 0.36412 0.78196 0.40849
 H3715 H 0.41655 0.75478 0.40950
 H3716 H 0.43358 0.78701 0.38859
 H3717 H 0.38116 0.81419 0.38761
 H3718 H 0.40078 0.78693 0.36238
 C3719 C 0.41026 0.27933 0.91409
 C3720 C 0.38781 0.27573 0.91181
 C3721 C 0.39132 0.26913 0.89035
 C3722 C 0.41364 0.27247 0.89249
 C3723 C 0.40735 0.30057 0.90658
 C3724 C 0.41086 0.29398 0.88511
 C3725 C 0.38502 0.29724 0.90442
 C3726 C 0.38839 0.29036 0.88282
 C3727 C 0.38241 0.25154 0.88146
 C3728 C 0.37508 0.23702 0.87427
 C3729 C 0.41633 0.31799 0.91573
 C3730 C 0.42373 0.33231 0.92327
 H3731 H 0.41935 0.27501 0.92706
 H3732 H 0.37822 0.26803 0.92269
 H3733 H 0.42533 0.26211 0.88748
 H3734 H 0.42042 0.30169 0.87422
 H3735 H 0.37334 0.30761 0.90940
 H3736 H 0.37930 0.29468 0.86985
 C3737 C 1.11020 0.78831 1.08438
 C3738 C 1.12041 0.78773 1.10489
 C3739 C 1.10911 0.76863 1.10974
 C3740 C 1.09905 0.76895 1.08936
 C3741 C 1.09315 0.80019 1.09350
 C3742 C 1.08187 0.78110 1.09836
 C3743 C 1.10322 0.79989 1.11388
 C3744 C 1.09207 0.78052 1.11887
 C3745 C 1.11793 0.75096 1.11869
 C3746 C 1.12518 0.73638 1.12595
 C3747 C 1.08414 0.81769 1.08440
 C3748 C 1.07670 0.83207 1.07693
 H3749 H 1.11759 0.79171 1.07011
 H3750 H 1.13635 0.79026 1.10768
 H3751 H 1.09742 0.75605 1.07935
 H3752 H 1.06592 0.77857 1.09558
 H3753 H 1.10487 0.81280 1.12388
 H3754 H 1.08471 0.77714 1.13316
 C3755 C 1.09742 0.29784 0.61579
 C3756 C 1.08840 0.27679 0.61545
 C3757 C 1.10876 0.26840 0.60997
 C3758 C 1.11792 0.28917 0.61045
 C3759 C 1.09282 0.29991 0.59361
 C3760 C 1.11318 0.29152 0.58813
 C3761 C 1.08368 0.27914 0.59314
 C3762 C 1.10417 0.27049 0.58780
 C3763 C 1.11764 0.25081 0.61898
 C3764 C 1.12498 0.23630 0.62631
 C3765 C 1.08387 0.31739 0.58440
 C3766 C 1.07650 0.33176 0.57686
 H3767 H 1.09458 0.30927 0.62721
 H3768 H 1.07830 0.27056 0.62679
 H3769 H 1.13210 0.29310 0.61767
 H3770 H 1.12330 0.29777 0.57682
 H3771 H 1.06950 0.27520 0.58592
 H3772 H 1.10704 0.25906 0.57637
 C3773 C 0.59563 0.79781 0.61562
 C3774 C 0.58769 0.77642 0.61364
 C3775 C 0.60878 0.76924 0.60938
 C3776 C 0.61687 0.79034 0.61152
 C3777 C 0.59263 0.80072 0.59327
 C3778 C 0.61373 0.79355 0.58903
 C3779 C 0.58456 0.77962 0.59115
 C3780 C 0.60578 0.77218 0.58704
 C3781 C 0.61771 0.75161 0.61818
 C3782 C 0.62504 0.73705 0.62535
 C3783 C 0.58358 0.81815 0.58417
 C3784 C 0.57614 0.83249 0.57665
 H3785 H 0.59136 0.80855 0.62727
 H3786 H 0.57709 0.76920 0.62387
 H3787 H 0.63025 0.79455 0.62000
 H3788 H 0.62435 0.80078 0.57883
 H3789 H 0.57117 0.77540 0.58268
 H3790 H 0.61008 0.76144 0.57540
 C3791 C 0.59174 0.29553 1.11541
 C3792 C 0.58671 0.27389 1.10992
 C3793 C 0.60887 0.26909 1.10950
 C3794 C 0.61405 0.29046 1.11514
 C3795 C 0.59288 0.30060 1.09327
 C3796 C 0.61505 0.29582 1.09286
 C3797 C 0.58772 0.27923 1.08765
 C3798 C 0.61002 0.27417 1.08737
 C3799 C 0.61771 0.25146 1.11843
 C3800 C 0.62496 0.23690 1.12569
 C3801 C 0.58386 0.31805 1.08416
 C3802 C 0.57640 0.33238 1.07666
 H3803 H 0.58415 0.30453 1.12684
 H3804 H 0.57515 0.26469 1.11704
 H3805 H 0.62498 0.29488 1.12655
 H3806 H 0.62662 0.30503 1.08576
 H3807 H 0.57681 0.27480 1.07623
 H3808 H 0.61765 0.26519 1.07595
 C3809 C 1.19907 1.10693 0.88889
 C3810 C 1.21370 1.12084 0.89967
 C3811 C 1.23096 1.10911 0.89075
 C3812 C 1.21661 1.09535 0.87982
 C3813 C 1.19951 1.09300 0.90686
 C3814 C 1.21677 1.08129 0.89793
 C3815 C 1.21385 1.10678 0.91778
 C3816 C 1.23138 1.09519 0.90872
 C3817 C 1.24854 1.11803 0.88189
 C3818 C 1.26305 1.12532 0.87465
 C3819 C 1.18210 1.08395 0.91593
 C3820 C 1.16778 1.07650 0.92339
 H3821 H 1.18559 1.11167 0.88082
 H3822 H 1.21265 1.13720 0.90026
 H3823 H 1.21794 1.09077 0.86410
 H3824 H 1.21782 1.06493 0.89729
 H3825 H 1.21252 1.11140 0.93348
 H3826 H 1.24486 1.09046 0.91677
 C3827 C 1.19917 0.60684 0.38906
 C3828 C 1.21372 0.62077 0.39993
 C3829 C 1.23106 0.60914 0.39101
 C3830 C 1.21678 0.59536 0.38000
 C3831 C 1.19961 0.59285 0.40699
 C3832 C 1.21694 0.58124 0.39806
 C3833 C 1.21388 0.60664 0.41799
 C3834 C 1.23148 0.59516 0.40894
 C3835 C 1.24865 0.61816 0.38222
 C3836 C 1.26317 0.62552 0.37502
 C3837 C 1.18220 0.58372 0.41601
 C3838 C 1.16787 0.57624 0.42345
 H3839 H 1.18571 0.61156 0.38097
 H3840 H 1.21260 0.63712 0.40058
 H3841 H 1.21817 0.59083 0.36427
 H3842 H 1.21806 0.56488 0.39737
 H3843 H 1.21249 0.61120 0.43371
 H3844 H 1.24495 0.59044 0.41702
 C3845 C 0.70041 1.11423 0.39917
 C3846 C 0.72066 1.11667 0.40952
 C3847 C 0.73085 1.10893 0.39075
 C3848 C 0.71087 1.10663 0.38025
 C3849 C 0.69938 1.09288 0.40688
 C3850 C 0.70956 1.08515 0.38810
 C3851 C 0.71936 1.09519 0.41737
 C3852 C 0.72981 1.08759 0.39846
 C3853 C 0.74844 1.11781 0.38188
 C3854 C 0.76297 1.12509 0.37464
 C3855 C 0.68196 1.08386 0.41597
 C3856 C 0.66763 1.07644 0.42344
 H3857 H 0.68813 1.12510 0.39954
 H3858 H 0.72544 1.12974 0.41820
 H3859 H 0.70760 1.11144 0.36488
 H3860 H 0.70479 1.07210 0.37938
 H3861 H 0.72266 1.09040 0.43273
 H3862 H 0.74209 1.07673 0.39805
 C3863 C 0.72072 0.58977 0.91438
 C3864 C 0.72744 0.58682 0.89267
 C3865 C 0.73096 0.60918 0.89098
 C3866 C 0.72449 0.61228 0.91255
 C3867 C 0.69950 0.59303 0.90705
 C3868 C 0.70301 0.61541 0.90536
 C3869 C 0.70595 0.58995 0.88548
 C3870 C 0.70974 0.61246 0.88364
 C3871 C 0.74855 0.61810 0.88211
 C3872 C 0.76307 0.62538 0.87486
 C3873 C 0.68208 0.58395 0.91609
 C3874 C 0.66775 0.57648 0.92354
 H3875 H 0.72503 0.58035 0.92712
 H3876 H 0.73767 0.57516 0.88735
 H3877 H 0.73231 0.62157 0.92358
 H3878 H 0.69277 0.62708 0.91065
 H3879 H 0.69813 0.58068 0.87443
 H3880 H 0.70545 0.62190 0.87090
 C3881 C 1.22016 0.91663 1.09394
 C3882 C 1.22198 0.91017 1.11587
 C3883 C 1.23120 0.89058 1.10905
 C3884 C 1.22965 0.89690 1.08726
 C3885 C 1.19975 0.90681 1.09302
 C3886 C 1.20896 0.88721 1.08621
 C3887 C 1.20129 0.90048 1.11481
 C3888 C 1.21079 0.88074 1.10814
 C3889 C 1.24879 0.88163 1.11794
 C3890 C 1.26330 0.87433 1.12523
 C3891 C 1.18231 0.91593 1.08401
 C3892 C 1.16798 0.92342 1.07659
 H3893 H 1.22381 0.93149 1.08801
 H3894 H 1.22752 0.91951 1.12817
 H3895 H 1.24149 0.89532 1.07601
 H3896 H 1.20340 0.87785 1.07393
 H3897 H 1.18944 0.90203 1.12606
 H3898 H 1.20714 0.86588 1.11407
 C3899 C 1.20186 0.40266 0.61516
 C3900 C 1.21009 0.38190 0.61004
 C3901 C 1.23095 0.39073 0.60900
 C3902 C 1.22301 0.41133 0.61427
 C3903 C 1.19950 0.40692 0.59294
 C3904 C 1.22036 0.41573 0.59192
 C3905 C 1.20744 0.38630 0.58769
 C3906 C 1.22857 0.39499 0.58680
 C3907 C 1.24856 0.38178 0.61784
 C3908 C 1.26310 0.37447 0.62505
 C3909 C 1.18207 0.41598 0.58388
 C3910 C 1.16773 0.42342 0.57641
 H3911 H 1.19070 0.40589 0.62674
 H3912 H 1.20608 0.36789 0.61760
 H3913 H 1.22960 0.42152 0.62531
 H3914 H 1.22439 0.42975 0.58439
 H3915 H 1.20084 0.37609 0.57668
 H3916 H 1.23974 0.39173 0.57523
 C3917 C 0.71771 0.90073 0.58141
 C3918 C 0.73083 0.91050 0.59742
 C3919 C 0.73078 0.89097 0.60905
 C3920 C 0.71792 0.88107 0.59317
 C3921 C 0.69930 0.90717 0.59301
 C3922 C 0.69923 0.88764 0.60464
 C3923 C 0.71215 0.91706 0.60889
 C3924 C 0.71236 0.89739 0.62066
 C3925 C 0.74839 0.88204 0.61790
 C3926 C 0.76292 0.87476 0.62515
 C3927 C 0.68186 0.91627 0.58399
 C3928 C 0.66752 0.92375 0.57656
 H3929 H 0.71971 0.90219 0.56517
 H3930 H 0.74401 0.91980 0.59455
 H3931 H 0.72048 0.86616 0.58682
 H3932 H 0.68605 0.87833 0.60753
 H3933 H 0.70958 0.93195 0.61528
 H3934 H 0.71036 0.89591 0.63690
 C3935 C 0.71805 0.40036 1.08134
 C3936 C 0.73114 0.41016 1.09736
 C3937 C 0.73109 0.39065 1.10901
 C3938 C 0.71827 0.38071 1.09313
 C3939 C 0.69962 0.40679 1.09291
 C3940 C 0.69955 0.38727 1.10456
 C3941 C 0.71244 0.41672 1.10880
 C3942 C 0.71265 0.39706 1.12059
 C3943 C 0.74869 0.38179 1.11795
 C3944 C 0.76321 0.37457 1.12528
 C3945 C 0.68219 0.41590 1.08389
 C3946 C 0.66785 0.42341 1.07648
 H3947 H 0.72006 0.40180 1.06509
 H3948 H 0.74431 0.41948 1.09448
 H3949 H 0.72085 0.36580 1.08679
 H3950 H 0.68638 0.37795 1.10743
 H3951 H 0.70983 0.43161 1.11517
 H3952 H 0.71063 0.39558 1.13682
 C3953 C 0.78061 1.09538 1.08269
 C3954 C 0.77024 1.08783 1.10168
 C3955 C 0.76917 1.10919 1.10928
 C3956 C 0.77928 1.11689 1.09044
 C3957 C 0.80063 1.09313 1.09312
 C3958 C 0.79958 1.11451 1.10073
 C3959 C 0.79053 1.08545 1.11198
 C3960 C 0.78919 1.10696 1.11972
 C3961 C 0.75157 1.11803 1.11823
 C3962 C 0.73705 1.12525 1.12555
 C3963 C 0.81807 1.08407 1.08407
 C3964 C 0.83242 1.07660 1.07664
 H3965 H 0.77727 1.09054 1.06736
 H3966 H 0.75798 1.07696 1.10216
 H3967 H 0.77444 1.12992 1.08170
 H3968 H 0.81181 1.12541 1.10027
 H3969 H 0.79534 1.07244 1.12076
 H3970 H 0.79249 1.11183 1.13505
 C3971 C 0.79989 0.60128 0.61400
 C3972 C 0.78901 0.61974 0.60589
 C3973 C 0.76924 0.60905 0.60892
 C3974 C 0.77984 0.59074 0.61717
 C3975 C 0.80069 0.59285 0.59290
 C3976 C 0.78091 0.58218 0.59595
 C3977 C 0.79009 0.61118 0.58466
 C3978 C 0.77005 0.60063 0.58783
 C3979 C 0.75165 0.61799 0.61776
 C3980 C 0.73714 0.62529 0.62501
 C3981 C 0.81811 0.58374 0.58389
 C3982 C 0.83243 0.57625 0.57645
 H3983 H 0.81233 0.60148 0.62468
 H3984 H 0.79210 0.63530 0.61009
 H3985 H 0.77541 0.58246 0.63065
 H3986 H 0.77778 0.56663 0.59178
 H3987 H 0.79451 0.61950 0.57120
 H3988 H 0.75759 0.60047 0.57717
 C3989 C 0.29784 1.11519 0.59763
 C3990 C 0.27673 1.11444 0.58884
 C3991 C 0.26868 1.10908 0.60941
 C3992 C 0.28952 1.10998 0.61835
 C3993 C 0.30016 1.09303 0.59326
 C3994 C 0.29212 1.08767 0.61385
 C3995 C 0.27932 1.09214 0.58435
 C3996 C 0.27102 1.08692 0.60506
 C3997 C 0.25107 1.11796 0.61829
 C3998 C 0.23652 1.12522 0.62551
 C3999 C 0.31759 1.08402 0.58415
 C4000 C 0.33192 1.07660 0.57665
 H4001 H 0.30906 1.12674 0.59450
 H4002 H 0.27021 1.12556 0.57867
 H4003 H 0.29349 1.11741 0.63243
 H4004 H 0.29865 1.07658 0.62405
 H4005 H 0.27532 1.08472 0.57027
 H4006 H 0.25980 1.07539 0.60823
 C4007 C 0.30099 0.60950 1.10876
 C4008 C 0.28462 0.62067 1.09727
 C4009 C 0.26896 0.60927 1.10913
 C4010 C 0.28506 0.59825 1.12075
 C4011 C 0.30043 0.59309 1.09306
 C4012 C 0.28477 0.58170 1.10492
 C4013 C 0.28433 0.60413 1.08144
 C4014 C 0.26842 0.59286 1.09343
 C4015 C 0.25136 0.61821 1.11802
 C4016 C 0.23684 0.62550 1.12529
 C4017 C 0.31786 0.58399 1.08403
 C4018 C 0.33221 0.57651 1.07659
 H4019 H 0.31456 0.61627 1.11498
 H4020 H 0.28436 0.63680 1.09424
 H4021 H 0.28516 0.59595 1.13702
 H4022 H 0.28503 0.56558 1.10799
 H4023 H 0.28423 0.60647 1.06517
 H4024 H 0.25483 0.58612 1.08722
 C4025 C 0.79840 0.88507 0.90269
 C4026 C 0.77732 0.88570 0.91157
 C4027 C 0.76917 0.89111 0.89106
 C4028 C 0.78997 0.89034 0.88203
 C4029 C 0.80061 0.90723 0.90713
 C4030 C 0.79247 0.91263 0.88661
 C4031 C 0.77981 0.90799 0.91614
 C4032 C 0.77140 0.91326 0.89549
 C4033 C 0.75157 0.88222 0.88221
 C4034 C 0.73703 0.87498 0.87498
 C4035 C 0.81802 0.91631 0.91617
 C4036 C 0.83234 0.92378 0.92361
 H4037 H 0.80969 0.87356 0.90573
 H4038 H 0.77090 0.87451 0.92173
 H4039 H 0.79392 0.88296 0.86790
 H4040 H 0.79890 0.92379 0.87642
 H4041 H 0.77584 0.91534 0.93027
 H4042 H 0.76011 0.92475 0.89242
 C4043 C 0.78180 0.41801 0.40073
 C4044 C 0.78150 0.40642 0.38097
 C4045 C 0.76888 0.39037 0.39092
 C4046 C 0.76893 0.40182 0.41055
 C4047 C 0.80038 0.40653 0.40690
 C4048 C 0.78778 0.39047 0.41684
 C4049 C 0.80036 0.39508 0.38727
 C4050 C 0.78747 0.37888 0.39707
 C4051 C 0.75127 0.38147 0.38206
 C4052 C 0.73672 0.37422 0.37481
 C4053 C 0.81783 0.41565 0.41587
 C4054 C 0.83217 0.42314 0.42328
 H4055 H 0.77966 0.43420 0.40232
 H4056 H 0.77872 0.41287 0.36612
 H4057 H 0.75582 0.40449 0.42004
 H4058 H 0.79056 0.38398 0.43168
 H4059 H 0.81346 0.39238 0.37777
 H4060 H 0.78959 0.36269 0.39546
 C4061 C 0.28164 0.91818 0.40098
 C4062 C 0.28137 0.90654 0.38124
 C4063 C 0.26884 0.89046 0.39126
 C4064 C 0.26885 0.90196 0.41085
 C4065 C 0.30027 0.90679 0.40715
 C4066 C 0.28775 0.89070 0.41715
 C4067 C 0.30028 0.89529 0.38755
 C4068 C 0.28747 0.87906 0.39741
 C4069 C 0.25125 0.88147 0.38248
 C4070 C 0.23673 0.87415 0.37528
 C4071 C 0.31768 0.91597 0.41610
 C4072 C 0.33199 0.92351 0.42349
 H4073 H 0.27945 0.93436 0.40253
 H4074 H 0.27855 0.91294 0.36638
 H4075 H 0.25574 0.90460 0.42034
 H4076 H 0.29057 0.88427 0.43200
 H4077 H 0.31339 0.89263 0.37806
 H4078 H 0.28966 0.86288 0.39584
 C4079 C 0.30112 0.39084 0.89104
 C4080 C 0.28493 0.37945 0.90254
 C4081 C 0.26910 0.39085 0.89092
 C4082 C 0.28502 0.40210 0.87928
 C4083 C 0.30053 0.40709 0.90691
 C4084 C 0.28471 0.41849 0.89528
 C4085 C 0.28461 0.39583 0.91854
 C4086 C 0.26852 0.40709 0.90677
 C4087 C 0.25153 0.38184 0.88210
 C4088 C 0.23704 0.37448 0.87488
 C4089 C 0.31795 0.41619 0.91594
 C4090 C 0.33228 0.42366 0.92339
 H4091 H 0.31471 0.38424 0.88465
 H4092 H 0.28481 0.36329 0.90541
 H4093 H 0.28498 0.40457 0.86303
 H4094 H 0.28482 0.43464 0.89237
 H4095 H 0.28465 0.39333 0.93478
 H4096 H 0.25493 0.41369 0.91315
   
