data_POSCAR
  _audit_creation_date              2014-09-24
  _audit_creation_method            'ToBaCCo'
  _symmetry_space_group_name_H-M    'P1'
  _symmetry_Int_Tables_number       1
  _symmetry_cell_setting            triclinic
  loop_
  _symmetry_equiv_pos_as_xyz
 x,y,z
_cell_length_a 57.2550
_cell_length_b 55.8406
_cell_length_c 55.7127
_cell_angle_alpha 89.745900
_cell_angle_beta 87.159700
_cell_angle_gamma 88.445800
loop_
  _atom_site_label
  _atom_site_type_symbol
  _atom_site_fract_x
  _atom_site_fract_y
  _atom_site_fract_z
C1 C 0.75323 0.62470 1.00325
 C2 C 0.74371 0.36954 0.50310
 C3 C 0.24945 -0.12642 0.00330
 C4 C 0.25356 0.11356 0.50227
 C5 C 0.11758 0.49943 0.25668
 C6 C -0.11815 0.01250 0.24571
 C7 C 0.37842 0.50644 0.74532
 C8 C 0.62210 1.00201 0.75672
 C9 C 0.00709 0.25063 -0.12245
 C10 C 0.49876 0.26299 0.11314
 C11 C 0.99475 0.74894 0.61459
 C12 C 0.50457 0.75973 0.38615
 C13 C 0.42123 -0.01854 0.26804
 H14 H 0.42029 -0.00122 0.27671
 C15 C 0.43447 -0.03730 0.27772
 H16 H 0.44365 -0.03422 0.29391
 C17 C 0.40884 -0.04402 0.23752
 H18 H 0.39833 -0.04685 0.22229
 C19 C 0.42191 -0.06319 0.24651
 H20 H 0.42169 -0.08039 0.23765
 N21 N 0.40850 -0.02229 0.24849
 C22 C 0.38893 0.04617 0.21635
 H23 H 0.37045 0.04307 0.21519
 C24 C 0.39818 0.06753 0.20774
 H25 H 0.38675 0.08066 0.19960
 C26 C 0.42621 0.03250 0.22820
 H27 H 0.43697 0.01879 0.23628
 C28 C 0.43625 0.05370 0.21974
 H29 H 0.45476 0.05623 0.22156
 Zn30 Zn 0.38734 0.00220 0.23897
 N31 N 0.40285 0.02937 0.22668
 C32 C 0.36811 0.03441 0.27394
 N33 N 0.36848 0.01122 0.26653
 C34 C 0.35692 -0.00586 0.27951
 C35 C 0.34420 0.00021 0.30081
 C36 C 0.35555 0.04126 0.29494
 C37 C 0.38032 -0.01319 0.19260
 C38 C 0.36814 -0.02121 0.17327
 C39 C 0.33267 -0.02004 0.19867
 C40 C 0.34556 -0.01198 0.21756
 N41 N 0.36900 -0.00901 0.21427
 H42 H 0.37795 0.04764 0.26390
 H43 H 0.35785 -0.02426 0.27346
 H44 H 0.33507 -0.01356 0.31095
 H45 H 0.35586 0.05974 0.30071
 H46 H 0.39894 -0.01041 0.19044
 H47 H 0.37762 -0.02494 0.15634
 H48 H 0.31401 -0.02224 0.20154
 H49 H 0.33682 -0.00806 0.23477
 C50 C 0.42208 0.07167 0.20964
 C51 C 0.43451 -0.06014 0.26722
 C52 C 0.34399 -0.02482 0.17617
 C53 C 0.34343 0.02408 0.30872
 C54 C 0.08681 1.01405 0.77998
 H55 H 0.08411 0.99735 0.78951
 C56 C 0.07573 1.03516 0.78856
 H57 H 0.06416 1.03448 0.80450
 C58 C 0.10585 1.03534 0.74811
 H59 H 0.11822 1.03558 0.73287
 C60 C 0.09514 1.05680 0.75603
 H61 H 0.09942 1.07325 0.74665
 N62 N 0.10168 1.01454 0.76020
 C63 C 0.11226 0.94137 0.73409
 H64 H 0.13119 0.94095 0.73307
 C65 C 0.10022 0.92168 0.72649
 H66 H 0.11004 0.90622 0.71940
 C67 C 0.07664 0.96258 0.74376
 H68 H 0.06760 0.97869 0.75029
 C69 C 0.06382 0.94324 0.73619
 H70 H 0.04490 0.94450 0.73721
 Zn71 Zn 0.11941 0.98652 0.75157
 N72 N 0.10042 0.96118 0.74272
 C73 C 0.13362 0.95527 0.78842
 N74 N 0.13664 0.97729 0.77839
 C75 C 0.15085 0.99339 0.78812
 C76 C 0.16307 0.98737 0.80852
 C77 C 0.14555 0.94849 0.80866
 C78 C 0.12848 0.99737 0.70367
 C79 C 0.14143 1.00315 0.68273
 C80 C 0.17671 0.99907 0.70466
 C81 C 0.16303 0.99328 0.72525
 N82 N 0.13933 0.99302 0.72445
 H83 H 0.12167 0.94300 0.78102
 H84 H 0.15258 1.01096 0.78008
 H85 H 0.17449 1.00028 0.81592
 H86 H 0.14269 0.93097 0.81650
 H87 H 0.10961 0.99684 0.70356
 H88 H 0.13233 1.00739 0.66661
 H89 H 0.19554 0.99948 0.70559
 H90 H 0.17134 0.98928 0.74184
 C91 C 0.07568 0.92241 0.72750
 C92 C 0.08015 1.05698 0.77673
 C93 C 0.16587 1.00433 0.68310
 C94 C 0.16056 0.96458 0.81895
 C95 C 0.58640 0.52540 0.28398
 H96 H 0.58436 0.50826 0.29286
 C97 C 0.57391 0.54561 0.29287
 H98 H 0.56233 0.54387 0.30871
 C99 C 0.60515 0.54873 0.25348
 H100 H 0.61774 0.55013 0.23851
 C101 C 0.59298 0.56929 0.26167
 H102 H 0.59602 0.58613 0.25248
 N103 N 0.60178 0.52733 0.26471
 C104 C 0.61494 0.45623 0.23424
 H105 H 0.63386 0.45608 0.23373
 C106 C 0.60337 0.43677 0.22539
 H107 H 0.61355 0.42177 0.21780
 C108 C 0.57884 0.47644 0.24422
 H109 H 0.56941 0.49201 0.25149
 C110 C 0.56651 0.45731 0.23546
 H111 H 0.54757 0.45821 0.23628
 Zn112 Zn 0.62068 0.50030 0.25520
 N113 N 0.60262 0.47540 0.24367
 C114 C 0.63231 0.46706 0.29114
 N115 N 0.63646 0.48942 0.28243
 C116 C 0.65037 0.50456 0.29392
 C117 C 0.66102 0.49722 0.31489
 C118 C 0.64248 0.45906 0.31202
 C119 C 0.63181 0.51432 0.20859
 C120 C 0.64535 0.52249 0.18895
 C121 C 0.67960 0.51832 0.21245
 C122 C 0.66531 0.51022 0.23177
 N123 N 0.64180 0.50899 0.22965
 H124 H 0.62074 0.45547 0.28222
 H125 H 0.65294 0.52246 0.28695
 H126 H 0.67185 0.50955 0.32398
 H127 H 0.63905 0.44113 0.31851
 H128 H 0.61312 0.51279 0.20731
 H129 H 0.63696 0.52701 0.17247
 H130 H 0.69817 0.52004 0.21460
 H131 H 0.67298 0.50543 0.24851
 C132 C 0.57883 0.43707 0.22604
 C133 C 0.57742 0.56802 0.28189
 C134 C 0.66950 0.52508 0.19088
 C135 C 0.65694 0.47424 0.32426
 C136 C 0.90454 0.47360 0.77500
 H137 H 0.90456 0.49086 0.78373
 C138 C 0.91738 0.45424 0.78415
 H139 H 0.92726 0.45679 0.79997
 C140 C 0.89039 0.44895 0.74472
 H141 H 0.87942 0.44669 0.72974
 C142 C 0.90295 0.42921 0.75322
 H143 H 0.90190 0.41215 0.74423
 N144 N 0.89127 0.47059 0.75570
 C145 C 0.87503 0.54017 0.72374
 H146 H 0.85640 0.53801 0.72258
 C147 C 0.88538 0.56083 0.71471
 H148 H 0.87460 0.57440 0.70634
 C149 C 0.91165 0.52463 0.73559
 H150 H 0.92177 0.51041 0.74369
 C151 C 0.92279 0.54509 0.72668
 H152 H 0.94147 0.54656 0.72824
 Zn153 Zn 0.87130 0.49608 0.74594
 N154 N 0.88812 0.52275 0.73422
 C155 C 0.85128 0.52864 0.78019
 N156 N 0.85172 0.50542 0.77288
 C157 C 0.83928 0.48858 0.78531
 C158 C 0.82556 0.49494 0.80590
 C159 C 0.83768 0.53579 0.80044
 C160 C 0.86554 0.48162 0.69919
 C161 C 0.85399 0.47393 0.67931
 C162 C 0.81767 0.47554 0.70336
 C163 C 0.82995 0.48328 0.72283
 N164 N 0.85351 0.48582 0.72046
 H165 H 0.86176 0.54167 0.77061
 H166 H 0.84023 0.47015 0.77934
 H167 H 0.81577 0.48137 0.81565
 H168 H 0.83787 0.55430 0.80613
 H169 H 0.88425 0.48401 0.69780
 H170 H 0.86402 0.47009 0.66272
 H171 H 0.79892 0.47357 0.70550
 H172 H 0.82067 0.48718 0.73978
 C173 C 0.90954 0.56362 0.71627
 C174 C 0.91638 0.43157 0.77343
 C175 C 0.82975 0.47067 0.68128
 C176 C 0.82462 0.51887 0.81360
 C177 C 0.27221 0.40836 -0.02844
 H178 H 0.28038 0.41027 -0.01147
 C179 C 0.28106 0.42040 -0.04882
 H180 H 0.29610 0.43154 -0.04737
 C181 C 0.24361 0.39025 -0.05117
 H182 H 0.22940 0.37804 -0.05220
 C183 C 0.25189 0.40192 -0.07197
 H184 H 0.24352 0.39896 -0.08867
 N185 N 0.25387 0.39356 -0.02997
 C186 C 0.22495 0.38251 0.04297
 H187 H 0.22480 0.36314 0.04271
 C188 C 0.21673 0.39486 0.06348
 H189 H 0.20999 0.38485 0.07888
 C190 C 0.23358 0.41895 0.02288
 H191 H 0.24013 0.42820 0.00696
 C192 C 0.22537 0.43209 0.04307
 H193 H 0.22589 0.45146 0.04263
 Zn194 Zn 0.24483 0.37512 -0.00262
 N195 N 0.23351 0.39459 0.02337
 C196 C 0.28053 0.36186 0.02815
 N197 N 0.27169 0.35738 0.00645
 C198 C 0.28292 0.34206 -0.00947
 C199 C 0.30391 0.33046 -0.00371
 C200 C 0.30143 0.35082 0.03453
 C201 C 0.19952 0.36636 -0.01426
 C202 C 0.18017 0.35331 -0.01995
 C203 C 0.20346 0.31686 -0.01621
 C204 C 0.22242 0.33067 -0.01046
 N205 N 0.22018 0.35498 -0.00996
 H206 H 0.27181 0.37454 0.04034
 H207 H 0.27582 0.33924 -0.02684
 H208 H 0.31289 0.31866 -0.01671
 H209 H 0.30819 0.35472 0.05186
 H210 H 0.19821 0.38571 -0.01353
 H211 H 0.16408 0.36281 -0.02393
 H212 H 0.20549 0.29753 -0.01666
 H213 H 0.23885 0.32195 -0.00646
 C214 C 0.21707 0.41997 0.06382
 C215 C 0.27106 0.41699 -0.07105
 C216 C 0.18201 0.32822 -0.02112
 C217 C 0.31355 0.33512 0.01842
 C218 C 0.78033 0.09813 1.02017
 H219 H 0.78961 0.09574 1.00292
 C220 C 0.78900 0.08723 1.04068
 H221 H 0.80500 0.07645 1.03901
 C222 C 0.74915 0.11653 1.04348
 H223 H 0.73403 0.12851 1.04471
 C224 C 0.75718 0.10598 1.06439
 H225 H 0.74770 0.10952 1.08136
 N226 N 0.76086 0.11263 1.02194
 C227 C 0.73580 0.12244 0.94965
 H228 H 0.73488 0.14182 0.94956
 C229 C 0.72858 0.10980 0.92996
 H230 H 0.72191 0.11963 0.91485
 C231 C 0.74482 0.08627 0.97002
 H232 H 0.75097 0.07725 0.98581
 C233 C 0.73763 0.07284 0.95066
 H234 H 0.73857 0.05347 0.95158
 Zn235 Zn 0.75229 0.13047 0.99454
 N236 N 0.74391 0.11063 0.96905
 C237 C 0.78891 0.14523 0.96249
 N238 N 0.77834 0.14885 0.98462
 C239 C 0.78717 0.16425 1.00050
 C240 C 0.80735 0.17687 0.99426
 C241 C 0.80911 0.15735 0.95557
 C242 C 0.70566 0.13866 1.00795
 C243 C 0.68521 0.15150 1.01467
 C244 C 0.70623 0.18823 1.00911
 C245 C 0.72636 0.17462 1.00245
 N246 N 0.72579 0.15027 1.00249
 H247 H 0.78204 0.13251 0.95031
 H248 H 0.77871 0.16640 1.01819
 H249 H 0.81439 0.18875 1.00723
 H250 H 0.81726 0.15419 0.93787
 H251 H 0.70563 0.11929 1.00738
 H252 H 0.66940 0.14187 1.01909
 H253 H 0.70710 0.20756 1.00969
 H254 H 0.74241 0.18352 0.99751
 C255 C 0.72946 0.08466 0.93024
 C256 C 0.77761 0.09146 1.06326
 C257 C 0.68540 0.17661 1.01569
 C258 C 0.81871 0.17324 0.97161
 C259 C 0.28036 0.59175 0.51757
 H260 H 0.28934 0.58943 0.50015
 C261 C 0.28932 0.58069 0.53782
 H262 H 0.30501 0.56947 0.53576
 C263 C 0.24940 0.60983 0.54146
 H264 H 0.23432 0.62186 0.54300
 C265 C 0.25773 0.59912 0.56214
 H266 H 0.24885 0.60302 0.57935
 N267 N 0.26083 0.60612 0.51974
 C268 C 0.23579 0.61480 0.44747
 H269 H 0.23516 0.63417 0.44666
 C270 C 0.22828 0.60154 0.42832
 H271 H 0.22173 0.61088 0.41286
 C272 C 0.24412 0.57928 0.46924
 H273 H 0.24999 0.57074 0.48539
 C274 C 0.23659 0.56526 0.45049
 H275 H 0.23703 0.54594 0.45223
 Zn276 Zn 0.25183 0.62384 0.49253
 N277 N 0.24365 0.60359 0.46733
 C278 C 0.28851 0.63909 0.46056
 N279 N 0.27769 0.64252 0.48260
 C280 C 0.28647 0.65757 0.49883
 C281 C 0.30696 0.66987 0.49313
 C282 C 0.30902 0.65097 0.45414
 C283 C 0.20525 0.63069 0.50626
 C284 C 0.18457 0.64276 0.51369
 C285 C 0.20448 0.68023 0.50894
 C286 C 0.22489 0.66737 0.50155
 N287 N 0.22498 0.64301 0.50086
 H288 H 0.28167 0.62662 0.44811
 H289 H 0.27785 0.65953 0.51646
 H290 H 0.31399 0.68134 0.50647
 H291 H 0.31736 0.64796 0.43650
 H292 H 0.20576 0.61134 0.50518
 H293 H 0.16913 0.63254 0.51808
 H294 H 0.20482 0.69956 0.51013
 H295 H 0.24067 0.67683 0.49677
 C296 C 0.22854 0.57643 0.42969
 C297 C 0.27816 0.58463 0.56055
 C298 C 0.18408 0.66783 0.51552
 C299 C 0.31867 0.66639 0.47061
 C300 C 0.77920 0.91257 0.47342
 H301 H 0.78786 0.91359 0.49019
 C302 C 0.78832 0.92448 0.45305
 H303 H 0.80405 0.93463 0.45434
 C304 C 0.74900 0.89688 0.45108
 H305 H 0.73403 0.88563 0.45015
 C306 C 0.75751 0.90846 0.43032
 H307 H 0.74857 0.90643 0.41380
 N308 N 0.75991 0.89906 0.47208
 C309 C 0.73205 0.88800 0.54545
 H310 H 0.73046 0.86877 0.54451
 C311 C 0.72530 0.90006 0.56658
 H312 H 0.71818 0.88998 0.58177
 C313 C 0.74288 0.92438 0.52642
 H314 H 0.74971 0.93372 0.51067
 C315 C 0.73619 0.93725 0.54729
 H316 H 0.73811 0.95648 0.54752
 Zn317 Zn 0.75009 0.88071 0.49927
 N318 N 0.74098 0.90015 0.52605
 C319 C 0.78578 0.86436 0.52856
 N320 N 0.77576 0.86053 0.50734
 C321 C 0.78507 0.84410 0.49133
 C322 C 0.80519 0.83062 0.49658
 C323 C 0.80588 0.85149 0.53441
 C324 C 0.70384 0.87648 0.48842
 C325 C 0.68317 0.86547 0.48311
 C326 C 0.70308 0.82697 0.48641
 C327 C 0.72344 0.83877 0.49173
 N328 N 0.72350 0.86312 0.49227
 H329 H 0.77866 0.87791 0.54080
 H330 H 0.77712 0.84180 0.47431
 H331 H 0.81264 0.81787 0.48356
 H332 H 0.81360 0.85492 0.55137
 H333 H 0.70435 0.89581 0.48923
 H334 H 0.66793 0.87653 0.47945
 H335 H 0.70328 0.80759 0.48599
 H336 H 0.73909 0.82846 0.49543
 C337 C 0.72751 0.92498 0.56781
 C338 C 0.77760 0.92226 0.43104
 C339 C 0.68261 0.84039 0.48190
 C340 C 0.81599 0.83456 0.51824
 C341 C -0.02197 0.27100 0.42644
 H342 H -0.00611 0.28082 0.42817
 C343 C -0.04273 0.27878 0.43863
 H344 H -0.04268 0.29467 0.44969
 C345 C -0.04162 0.23942 0.40849
 H346 H -0.04139 0.22447 0.39626
 C347 C -0.06265 0.24646 0.42040
 H348 H -0.07819 0.23642 0.41756
 N349 N -0.02185 0.25182 0.41145
 C350 C 0.04983 0.22516 0.39751
 H351 H 0.05004 0.22516 0.37808
 C352 C 0.06954 0.21719 0.40922
 H353 H 0.08479 0.21076 0.39865
 C354 C 0.02938 0.23321 0.43476
 H355 H 0.01366 0.23949 0.44457
 C356 C 0.04875 0.22523 0.44727
 H357 H 0.04785 0.22561 0.46672
 Zn358 Zn 0.00543 0.24447 0.39191
 N359 N 0.03043 0.23330 0.41031
 C360 C 0.03547 0.28219 0.37908
 N361 N 0.01416 0.27299 0.37554
 C362 C -0.00154 0.28481 0.36190
 C363 C 0.00414 0.30660 0.35088
 C364 C 0.04181 0.30389 0.36852
 C365 C -0.00395 0.19762 0.38024
 C366 C -0.01085 0.17860 0.36637
 C367 C -0.01059 0.20490 0.33182
 C368 C -0.00359 0.22348 0.34640
 N369 N -0.00107 0.21968 0.37028
 H370 H 0.04753 0.27299 0.39046
 H371 H -0.01862 0.27746 0.35987
 H372 H -0.00864 0.31590 0.34029
 H373 H 0.05896 0.31072 0.37142
 H374 H -0.00154 0.19503 0.39922
 H375 H -0.01339 0.16129 0.37479
 H376 H -0.01350 0.20849 0.31308
 H377 H -0.00086 0.24103 0.33873
 C378 C 0.06926 0.21735 0.43443
 C379 C -0.06356 0.26672 0.43528
 C380 C -0.01483 0.18223 0.34194
 C381 C 0.02604 0.31647 0.35429
 C382 C 1.01925 0.77797 0.08630
 H383 H 1.00243 0.78717 0.08546
 C384 C 1.03868 0.78657 0.07306
 H385 H 1.03656 0.80219 0.06172
 C386 C 1.04255 0.74689 0.10272
 H387 H 1.04426 0.73191 0.11488
 C388 C 1.06237 0.75484 0.08982
 H389 H 1.07905 0.74578 0.09227
 N390 N 1.02152 0.75853 0.10087
 C391 C 0.95190 0.73093 0.11723
 H392 H 0.95293 0.72972 0.13653
 C393 C 0.93193 0.72350 0.10642
 H394 H 0.91775 0.71628 0.11755
 C395 C 0.96959 0.74129 0.07937
 H396 H 0.98439 0.74814 0.06895
 C397 C 0.94988 0.73394 0.06775
 H398 H 0.94956 0.73546 0.04839
 Zn399 Zn 0.99569 0.74951 0.12126
 N400 N 0.97008 0.73990 0.10373
 C401 C 0.96472 0.78640 0.13810
 N402 N 0.98644 0.77646 0.14043
 C403 C 1.00207 0.78672 0.15460
 C404 C 0.99601 0.80788 0.16709
 C405 C 0.95801 0.80748 0.15013
 C406 C 1.00876 0.70213 0.12760
 C407 C 1.01613 0.68140 0.13932
 C408 C 1.01380 0.70322 0.17676
 C409 C 1.00640 0.72364 0.16426
 N410 N 1.00449 0.72280 0.14004
 H411 H 0.95269 0.77844 0.12636
 H412 H 1.01942 0.77877 0.15573
 H413 H 1.00878 0.81613 0.17789
 H414 H 0.94066 0.81511 0.14791
 H415 H 1.00674 0.70192 0.10840
 H416 H 1.01952 0.66518 0.12900
 H417 H 1.01592 0.70433 0.19592
 H418 H 1.00252 0.74014 0.17387
 C419 C 0.93064 0.72508 0.08137
 C420 C 1.06070 0.77513 0.07497
 C421 C 1.01910 0.68184 0.16417
 C422 C 0.97382 0.81869 0.16460
 C423 C 0.51606 0.26989 0.58670
 H424 H 0.49909 0.27859 0.58512
 C425 C 0.53551 0.27845 0.57354
 H426 H 0.53326 0.29354 0.56153
 C427 C 0.53959 0.23998 0.60476
 H428 H 0.54128 0.22546 0.61747
 C429 C 0.55950 0.24798 0.59198
 H430 H 0.57629 0.23944 0.59507
 N431 N 0.51842 0.25102 0.60198
 C432 C 0.44812 0.22406 0.61500
 H433 H 0.44744 0.22399 0.63444
 C434 C 0.42907 0.21629 0.60278
 H435 H 0.41385 0.21000 0.61299
 C436 C 0.46916 0.23181 0.57820
 H437 H 0.48490 0.23770 0.56873
 C438 C 0.45050 0.22404 0.56522
 H439 H 0.45194 0.22431 0.54577
 Zn440 Zn 0.49193 0.24234 0.62146
 N441 N 0.46750 0.23196 0.60266
 C442 C 0.46023 0.27975 0.63636
 N443 N 0.48188 0.26988 0.63931
 C444 C 0.49719 0.28038 0.65365
 C445 C 0.49084 0.30157 0.66588
 C446 C 0.45321 0.30090 0.64814
 C447 C 0.50585 0.19540 0.63112
 C448 C 0.51221 0.17550 0.64476
 C449 C 0.50547 0.19931 0.68068
 C450 C 0.49917 0.21879 0.66630
 N451 N 0.49984 0.21659 0.64196
 H452 H 0.44848 0.27156 0.62446
 H453 H 0.51450 0.27245 0.65528
 H454 H 0.50336 0.30991 0.67691
 H455 H 0.43588 0.30841 0.64557
 H456 H 0.50599 0.19411 0.61174
 H457 H 0.51757 0.15900 0.63568
 H458 H 0.50493 0.20136 0.70001
 H459 H 0.49380 0.23562 0.67463
 C460 C 0.43004 0.21634 0.57755
 C461 C 0.55767 0.26765 0.57633
 C462 C 0.51224 0.17733 0.66989
 C463 C 0.46865 0.31221 0.66298
 C464 C 0.47946 0.77485 0.91346
 H465 H 0.49536 0.78492 0.91324
 C466 C 0.45963 0.78298 0.92707
 H467 H 0.46041 0.79940 0.93722
 C468 C 0.45870 0.74213 0.89917
 H469 H 0.45810 0.72652 0.88791
 C470 C 0.43861 0.74949 0.91258
 H471 H 0.42301 0.73905 0.91179
 N472 N 0.47858 0.75489 0.89965
 C473 C 0.54826 0.72476 0.88174
 H474 H 0.54673 0.72325 0.86253
 C475 C 0.56848 0.71632 0.89222
 H476 H 0.58255 0.70851 0.88087
 C477 C 0.53180 0.73738 0.91962
 H478 H 0.51738 0.74552 0.93017
 C479 C 0.55183 0.72916 0.93090
 H480 H 0.55259 0.73088 0.95019
 Zn481 Zn 0.50444 0.74621 0.87852
 N482 N 0.53053 0.73522 0.89542
 C483 C 0.53521 0.78114 0.86017
 N484 N 0.51285 0.77354 0.86000
 C485 C 0.49632 0.78597 0.84791
 C486 C 0.50217 0.80680 0.83514
 C487 C 0.54182 0.80164 0.84755
 C488 C 0.49406 0.69896 0.86980
 C489 C 0.48667 0.67924 0.85727
 C490 C 0.48431 0.70412 0.82183
 C491 C 0.49183 0.72344 0.83510
 N492 N 0.49603 0.72062 0.85878
 H493 H 0.54799 0.77157 0.87040
 H494 H 0.47855 0.77982 0.84840
 H495 H 0.48888 0.81648 0.82555
 H496 H 0.55965 0.80750 0.84824
 H497 H 0.49779 0.69716 0.88858
 H498 H 0.48504 0.66222 0.86650
 H499 H 0.48022 0.70685 0.80324
 H500 H 0.49378 0.74074 0.82659
 C501 C 0.57051 0.71847 0.91712
 C502 C 0.43869 0.77044 0.92639
 C503 C 0.48124 0.68175 0.83307
 C504 C 0.52525 0.81478 0.83481
 C505 C 0.48974 -0.17718 0.34200
 C506 C 0.50103 -0.19723 0.33130
 C507 C 0.50620 -0.21750 0.34513
 C508 C 0.49945 -0.21837 0.36988
 C509 C 0.48944 -0.19732 0.38054
 C510 C 0.48433 -0.17714 0.36671
 C511 C 0.48278 -0.15696 0.32765
 C512 C 0.47595 -0.14014 0.31603
 C513 C 0.46655 -0.12033 0.30260
 C514 C 0.44532 -0.12277 0.29161
 C515 C 0.43518 -0.10332 0.27978
 C516 C 0.44615 -0.08105 0.27872
 C517 C 0.46768 -0.07883 0.28956
 C518 C 0.47781 -0.09837 0.30144
 H519 H 0.50575 -0.19725 0.31222
 H520 H 0.51566 -0.23224 0.33629
 H521 H 0.48505 -0.19677 0.39967
 H522 H 0.47587 -0.16159 0.37528
 H523 H 0.43635 -0.13961 0.29258
 H524 H 0.41839 -0.10555 0.27208
 H525 H 0.47664 -0.06200 0.28890
 H526 H 0.49422 -0.09627 0.30997
 C527 C 0.97996 0.31179 0.83703
 C528 C 0.99515 0.31554 0.85540
 C529 C 1.00431 0.29613 0.86809
 C530 C 0.99905 0.27228 0.86222
 C531 C 0.98301 0.26898 0.84410
 C532 C 0.97384 0.28848 0.83144
 C533 C 0.96976 0.33205 0.82491
 C534 C 0.96104 0.34922 0.81526
 C535 C 0.95025 0.36978 0.80419
 C536 C 0.96159 0.39170 0.80306
 C537 C 0.95070 0.41182 0.79296
 C538 C 0.92831 0.41024 0.78383
 C539 C 0.91713 0.38809 0.78502
 C540 C 0.92803 0.36804 0.79511
 H541 H 0.99949 0.33357 0.86036
 H542 H 1.01489 0.30015 0.88301
 H543 H 0.97737 0.25120 0.83990
 H544 H 0.96164 0.28538 0.81760
 H545 H 0.97879 0.39326 0.81008
 H546 H 0.95984 0.42855 0.79212
 H547 H 0.89973 0.38636 0.77857
 H548 H 0.91901 0.35122 0.79606
 C549 C 0.03444 1.18797 0.83739
 C550 C 0.03030 1.18705 0.86225
 C551 C 0.02206 1.20737 0.87472
 C552 C 0.01708 1.22906 0.86257
 C553 C 0.02285 1.23012 0.83761
 C554 C 0.03112 1.20961 0.82511
 C555 C 0.04195 1.16642 0.82486
 C556 C 0.04805 1.14769 0.81554
 C557 C 0.05534 1.12478 0.80562
 C558 C 0.06242 1.10637 0.82098
 C559 C 0.06997 1.08416 0.81162
 C560 C 0.07054 1.08003 0.78671
 C561 C 0.06305 1.09856 0.77141
 C562 C 0.05549 1.12079 0.78083
 H563 H 0.03322 1.17051 0.87204
 H564 H 0.01884 1.20602 0.89400
 H565 H 0.02118 1.24664 0.82761
 H566 H 0.03487 1.21065 0.80589
 H567 H 0.06238 1.10928 0.84020
 H568 H 0.07598 1.07045 0.82384
 H569 H 0.06307 1.09585 0.75218
 H570 H 0.04992 1.13488 0.76879
 C571 C 0.52266 0.69308 0.34761
 C572 C 0.50323 0.70707 0.34146
 C573 C 0.49763 0.72844 0.35375
 C574 C 0.51183 0.73670 0.37190
 C575 C 0.53064 0.72154 0.37861
 C576 C 0.53615 0.70026 0.36635
 C577 C 0.52920 0.67140 0.33484
 C578 C 0.53598 0.65334 0.32461
 C579 C 0.54560 0.63212 0.31289
 C580 C 0.53267 0.61124 0.31203
 C581 C 0.54284 0.59037 0.30173
 C582 C 0.56608 0.59020 0.29218
 C583 C 0.57881 0.61136 0.29304
 C584 C 0.56863 0.63213 0.30329
 H585 H 0.49238 0.70146 0.32724
 H586 H 0.48222 0.73871 0.34898
 H587 H 0.54101 0.72565 0.39367
 H588 H 0.55092 0.68926 0.37165
 H589 H 0.51485 0.61102 0.31952
 H590 H 0.53254 0.57442 0.30117
 H591 H 0.59686 0.61174 0.28631
 H592 H 0.57888 0.64811 0.30408
 C593 C 0.52049 0.32169 0.15796
 C594 C 0.51767 0.32498 0.13342
 C595 C 0.51059 0.30609 0.11946
 C596 C 0.50549 0.28355 0.12982
 C597 C 0.50936 0.28029 0.15452
 C598 C 0.51650 0.29929 0.16846
 C599 C 0.52856 0.34111 0.17196
 C600 C 0.53582 0.35760 0.18302
 C601 C 0.54520 0.37740 0.19547
 C602 C 0.53662 0.40075 0.19161
 C603 C 0.54711 0.42019 0.20211
 C604 C 0.56640 0.41647 0.21648
 C605 C 0.57446 0.39287 0.22077
 C606 C 0.56394 0.37349 0.21030
 H607 H 0.52121 0.34211 0.12497
 H608 H 0.50895 0.30905 0.10039
 H609 H 0.50759 0.26304 0.16314
 H610 H 0.51931 0.29638 0.18735
 H611 H 0.52220 0.40397 0.18003
 H612 H 0.54067 0.43815 0.19830
 H613 H 0.58906 0.38943 0.23204
 H614 H 0.57072 0.35550 0.21339
 C615 C 0.01746 0.80684 0.65993
 C616 C 0.01504 0.81029 0.63534
 C617 C 0.00780 0.79161 0.62119
 C618 C 0.00211 0.76915 0.63139
 C619 C 0.00577 0.76565 0.65610
 C620 C 0.01306 0.78444 0.67025
 C621 C 0.02536 0.82616 0.67419
 C622 C 0.03241 0.84265 0.68542
 C623 C 0.04156 0.86252 0.69797
 C624 C 0.03322 0.88587 0.69365
 C625 C 0.04373 0.90540 0.70399
 C626 C 0.06282 0.90176 0.71865
 C627 C 0.07054 0.87817 0.72352
 C628 C 0.06000 0.85871 0.71321
 H629 H 0.01891 0.82740 0.62703
 H630 H 0.00637 0.79473 0.60211
 H631 H 0.00359 0.74838 0.66460
 H632 H 0.01558 0.78138 0.68917
 H633 H 0.01904 0.88903 0.68176
 H634 H 0.03756 0.92334 0.69972
 H635 H 0.08500 0.87481 0.73500
 H636 H 0.06661 0.84072 0.71666
 C637 C 0.96620 0.68653 0.65248
 C638 C 0.98308 0.68330 0.63375
 C639 C 0.99227 0.70305 0.62152
 C640 C 0.98535 0.72671 0.62830
 C641 C 0.96725 0.72949 0.64635
 C642 C 0.95807 0.70965 0.65858
 C643 C 0.95691 0.66596 0.66492
 C644 C 0.94927 0.64845 0.67494
 C645 C 0.94004 0.62735 0.68644
 C646 C 0.95177 0.60516 0.68335
 C647 C 0.94217 0.58445 0.69351
 C648 C 0.92063 0.58569 0.70679
 C649 C 0.90924 0.60817 0.71020
 C650 C 0.91888 0.62883 0.70007
 H651 H 0.98899 0.66542 0.62838
 H652 H 1.00453 0.69953 0.60650
 H653 H 0.96038 0.74718 0.65117
 H654 H 0.94456 0.71235 0.67269
 H655 H 0.96814 0.60381 0.67277
 H656 H 0.95123 0.56739 0.69038
 H657 H 0.89282 0.60976 0.72065
 H658 H 0.90968 0.64591 0.70263
 C659 C 0.47279 0.19932 0.15077
 C660 C 0.46378 0.22208 0.15704
 C661 C 0.47220 0.24237 0.14499
 C662 C 0.49038 0.24038 0.12692
 C663 C 0.49825 0.21703 0.12004
 C664 C 0.48982 0.19686 0.13210
 C665 C 0.46420 0.17823 0.16278
 C666 C 0.45732 0.16011 0.17221
 C667 C 0.44917 0.13814 0.18279
 C668 C 0.42780 0.13792 0.19606
 C669 C 0.41924 0.11635 0.20519
 C670 C 0.43193 0.09468 0.20110
 C671 C 0.45364 0.09515 0.18818
 C672 C 0.46217 0.11676 0.17903
 H673 H 0.45013 0.22415 0.17112
 H674 H 0.46465 0.25976 0.14988
 H675 H 0.51062 0.21401 0.10501
 H676 H 0.49641 0.17924 0.12660
 H677 H 0.41763 0.15436 0.19911
 H678 H 0.40265 0.11661 0.21541
 H679 H 0.46369 0.07874 0.18456
 H680 H 0.47870 0.11674 0.16870
 C681 C 0.33697 0.47723 -0.19372
 C682 C 0.35494 0.49288 -0.18965
 C683 C 0.36809 0.50252 -0.20893
 C684 C 0.36310 0.49731 -0.23297
 C685 C 0.34550 0.48059 -0.23663
 C686 C 0.33237 0.47095 -0.21724
 C687 C 0.32401 0.46702 -0.17355
 C688 C 0.31372 0.45862 -0.15622
 C689 C 0.30203 0.44861 -0.13516
 C690 C 0.29976 0.46183 -0.11384
 C691 C 0.28942 0.45171 -0.09305
 C692 C 0.28120 0.42820 -0.09331
 C693 C 0.28334 0.41517 -0.11493
 C694 C 0.29370 0.42531 -0.13568
 H695 H 0.35911 0.49733 -0.17146
 H696 H 0.38254 0.51352 -0.20468
 H697 H 0.34194 0.47499 -0.25464
 H698 H 0.31882 0.45839 -0.22061
 H699 H 0.30618 0.47988 -0.11323
 H700 H 0.28781 0.46229 -0.07678
 H701 H 0.27755 0.39690 -0.11565
 H702 H 0.29552 0.41485 -0.15204
 C703 C 0.84166 0.98298 0.30745
 C704 C 0.85936 0.99906 0.31114
 C705 C 0.87205 1.00884 0.29161
 C706 C 0.86688 1.00334 0.26768
 C707 C 0.84953 0.98624 0.26440
 C708 C 0.83685 0.97646 0.28404
 C709 C 0.82922 0.97261 0.32789
 C710 C 0.81937 0.96409 0.34543
 C711 C 0.80815 0.95397 0.36671
 C712 C 0.80735 0.96660 0.38841
 C713 C 0.79725 0.95643 0.40931
 C714 C 0.78779 0.93346 0.40877
 C715 C 0.78854 0.92099 0.38681
 C716 C 0.79866 0.93118 0.36596
 H717 H 0.86370 1.00373 0.32922
 H718 H 0.88636 1.02014 0.29560
 H719 H 0.84585 0.98041 0.24650
 H720 H 0.82351 0.96358 0.28096
 H721 H 0.81467 0.98426 0.38921
 H722 H 0.79673 0.96658 0.42585
 H723 H 0.78177 0.90312 0.38586
 H724 H 0.79932 0.92117 0.34931
 C725 C 0.84213 0.04144 1.18645
 C726 C 0.83040 0.03674 1.20852
 C727 C 0.84278 0.02789 1.22789
 C728 C 0.86712 0.02288 1.22529
 C729 C 0.87876 0.02924 1.20329
 C730 C 0.86638 0.03805 1.18404
 C731 C 0.82949 0.04971 1.16613
 C732 C 0.81948 0.05655 1.14871
 C733 C 0.80808 0.06482 1.12761
 C734 C 0.80810 0.05031 1.10716
 C735 C 0.79795 0.05879 1.08630
 C736 C 0.78762 0.08192 1.08562
 C737 C 0.78751 0.09626 1.10637
 C738 C 0.79767 0.08776 1.12717
 H739 H 0.81167 0.03993 1.21079
 H740 H 0.83312 0.02527 1.24480
 H741 H 0.89755 0.02671 1.20085
 H742 H 0.87575 0.04205 1.16718
 H743 H 0.81614 0.03253 1.10728
 H744 H 0.79813 0.04724 1.07073
 H745 H 0.78009 0.11430 1.10634
 H746 H 0.79769 0.09922 1.14282
 C747 C 0.33984 0.53608 0.68567
 C748 C 0.32776 0.53156 0.70759
 C749 C 0.33977 0.52254 0.72713
 C750 C 0.36407 0.51717 0.72480
 C751 C 0.37607 0.52343 0.70298
 C752 C 0.36406 0.53242 0.68358
 C753 C 0.32766 0.54429 0.66509
 C754 C 0.31831 0.55097 0.64724
 C755 C 0.30807 0.55890 0.62541
 C756 C 0.28386 0.55836 0.62311
 C757 C 0.27410 0.56634 0.60187
 C758 C 0.28848 0.57493 0.58266
 C759 C 0.31281 0.57516 0.58511
 C760 C 0.32251 0.56720 0.60633
 H761 H 0.30904 0.53495 0.70958
 H762 H 0.32989 0.52002 0.74393
 H763 H 0.39484 0.52063 0.70076
 H764 H 0.37369 0.53627 0.66683
 H765 H 0.27254 0.55186 0.63773
 H766 H 0.25534 0.56573 0.60044
 H767 H 0.32432 0.58204 0.57084
 H768 H 0.34127 0.56771 0.60793
 C769 C 0.15986 0.51621 0.31746
 C770 C 0.14077 0.53104 0.31215
 C771 C 0.12718 0.52582 0.29285
 C772 C 0.13285 0.50597 0.27776
 C773 C 0.15130 0.49032 0.28439
 C774 C 0.16493 0.49563 0.30376
 C775 C 0.17414 0.52259 0.33687
 C776 C 0.18556 0.52931 0.35304
 C777 C 0.19850 0.53892 0.37212
 C778 C 0.21416 0.55728 0.36708
 C779 C 0.22463 0.56887 0.38577
 C780 C 0.21952 0.56228 0.40982
 C781 C 0.20447 0.54316 0.41469
 C782 C 0.19394 0.53162 0.39593
 H783 H 0.13630 0.54670 0.32303
 H784 H 0.11206 0.53733 0.29010
 H785 H 0.15534 0.47409 0.27430
 H786 H 0.17940 0.48372 0.30801
 H787 H 0.21776 0.56314 0.34873
 H788 H 0.23638 0.58331 0.38145
 H789 H 0.20003 0.53786 0.43303
 H790 H 0.18169 0.51757 0.40006
 C791 C 0.66729 0.02265 0.81393
 C792 C 0.65631 0.00061 0.81532
 C793 C 0.64224 -0.00651 0.79697
 C794 C 0.63811 0.00875 0.77717
 C795 C 0.65091 0.03003 0.77524
 C796 C 0.66496 0.03710 0.79361
 C797 C 0.68021 0.03088 0.83370
 C798 C 0.69046 0.03845 0.85036
 C799 C 0.70204 0.04842 0.87025
 C800 C 0.69742 0.03992 0.89365
 C801 C 0.70699 0.05115 0.91318
 C802 C 0.72119 0.07114 0.90952
 C803 C 0.72631 0.07905 0.88586
 C804 C 0.71677 0.06779 0.86640
 H805 H 0.65850 -0.01105 0.83069
 H806 H 0.63480 -0.02405 0.79848
 H807 H 0.64940 0.04161 0.75972
 H808 H 0.67373 0.05403 0.79209
 H809 H 0.68592 0.02502 0.89686
 H810 H 0.70255 0.04479 0.93117
 H811 H 0.73745 0.09418 0.88244
 H812 H 0.72047 0.07454 0.84838
 C813 C 0.66995 0.98429 0.69526
 C814 C 0.65699 1.00584 0.69526
 C815 C 0.64228 1.01219 0.71510
 C816 C 0.63948 0.99656 0.73506
 C817 C 0.65448 0.97606 0.73563
 C818 C 0.66916 0.96973 0.71574
 C819 C 0.68278 0.97641 0.67372
 C820 C 0.69263 0.96919 0.65542
 C821 C 0.70344 0.95965 0.63349
 C822 C 0.69877 0.97026 0.61134
 C823 C 0.70728 0.95947 0.58989
 C824 C 0.72041 0.93784 0.59039
 C825 C 0.72565 0.92778 0.61277
 C826 C 0.71718 0.93860 0.63414
 H827 H 0.65794 1.01759 0.67973
 H828 H 0.63308 1.02931 0.71448
 H829 H 0.65399 0.96432 0.75116
 H830 H 0.67946 0.95318 0.71613
 H831 H 0.68800 0.98648 0.61062
 H832 H 0.70281 0.96752 0.57295
 H833 H 0.73601 0.91132 0.61373
 H834 H 0.72087 0.93020 0.65116
 C835 C 0.15625 0.48057 0.18939
 C836 C 0.16786 0.49179 0.20758
 C837 C 0.15581 0.49800 0.22923
 C838 C 0.13200 0.49238 0.23341
 C839 C 0.12038 0.48227 0.21423
 C840 C 0.13243 0.47612 0.19268
 C841 C 0.16869 0.47298 0.16754
 C842 C 0.17860 0.46569 0.14930
 C843 C 0.18988 0.45577 0.12777
 C844 C 0.20490 0.43572 0.12942
 C845 C 0.21423 0.42452 0.10860
 C846 C 0.20863 0.43318 0.08578
 C847 C 0.19410 0.45380 0.08425
 C848 C 0.18471 0.46497 0.10516
 H849 H 0.18623 0.49578 0.20501
 H850 H 0.16522 0.50751 0.24239
 H851 H 0.10186 0.47881 0.21615
 H852 H 0.12315 0.46776 0.17859
 H853 H 0.20901 0.42842 0.14681
 H854 H 0.22566 0.40889 0.11034
 H855 H 0.18934 0.46075 0.06694
 H856 H 0.17297 0.48040 0.10368
 C857 C -0.19130 0.32921 0.48483
 C858 C -0.20528 0.32299 0.50506
 C859 C -0.22632 0.33563 0.51050
 C860 C -0.23419 0.35431 0.49542
 C861 C -0.21927 0.36081 0.47558
 C862 C -0.19832 0.34818 0.47021
 C863 C -0.16949 0.31663 0.47898
 C864 C -0.15117 0.30671 0.47298
 C865 C -0.12943 0.29546 0.46444
 C866 C -0.10966 0.29565 0.47828
 C867 C -0.08825 0.28600 0.46904
 C868 C -0.08637 0.27606 0.44582
 C869 C -0.10644 0.27579 0.43221
 C870 C -0.12776 0.28539 0.44147
 H871 H -0.19981 0.30860 0.51679
 H872 H -0.23646 0.33093 0.52667
 H873 H -0.22322 0.37613 0.46443
 H874 H -0.18736 0.35351 0.45479
 H875 H -0.11073 0.30351 0.49605
 H876 H -0.07318 0.28631 0.48002
 H877 H -0.10555 0.26875 0.41411
 H878 H -0.14287 0.28537 0.43050
 C879 C 0.31412 0.83294 0.98423
 C880 C 0.30041 0.82675 1.00469
 C881 C 0.27948 0.83950 1.01051
 C882 C 0.27145 0.85820 0.99555
 C883 C 0.28618 0.86472 0.97556
 C884 C 0.30698 0.85202 0.96983
 C885 C 0.33565 0.82014 0.97766
 C886 C 0.35366 0.81016 0.97068
 C887 C 0.37487 0.79892 0.96067
 C888 C 0.39594 0.80036 0.97227
 C889 C 0.41673 0.79085 0.96137
 C890 C 0.41667 0.77982 0.93869
 C891 C 0.39532 0.77834 0.92734
 C892 C 0.37464 0.78778 0.93826
 H893 H 0.30599 0.81226 1.01625
 H894 H 0.26955 0.83484 1.02682
 H895 H 0.28212 0.88008 0.96450
 H896 H 0.31771 0.85733 0.95424
 H897 H 0.39636 0.80909 0.98957
 H898 H 0.43282 0.79212 0.97065
 H899 H 0.39467 0.77045 0.90968
 H900 H 0.35851 0.78682 0.92896
 C901 C 1.18605 0.83468 0.02326
 C902 C 1.20496 0.82244 0.01155
 C903 C 1.22561 0.83443 0.00534
 C904 C 1.22791 0.85882 0.01132
 C905 C 1.20825 0.87094 0.02238
 C906 C 1.18775 0.85896 0.02853
 C907 C 1.16464 0.82275 0.02977
 C908 C 1.14636 0.81375 0.03586
 C909 C 1.12430 0.80397 0.04396
 C910 C 1.12111 0.77921 0.04390
 C911 C 1.10015 0.76982 0.05330
 C912 C 1.08210 0.78510 0.06295
 C913 C 1.08530 0.80999 0.06237
 C914 C 1.10625 0.81932 0.05297
 H915 H 1.20364 0.80372 0.00692
 H916 H 1.23937 0.82463 -0.00468
 H917 H 1.20880 0.88989 0.02625
 H918 H 1.17312 0.86875 0.03726
 H919 H 1.13495 0.76716 0.03695
 H920 H 1.09813 0.75060 0.05322
 H921 H 1.07196 0.82222 0.06998
 H922 H 1.10856 0.83852 0.05321
 C923 C 0.68076 0.32934 0.52157
 C924 C 0.68180 0.35370 0.52677
 C925 C 0.70203 0.36618 0.52078
 C926 C 0.72207 0.35448 0.51000
 C927 C 0.72031 0.33008 0.50378
 C928 C 0.69994 0.31758 0.50985
 C929 C 0.65987 0.31675 0.52851
 C930 C 0.64201 0.30724 0.53512
 C931 C 0.62040 0.29705 0.54394
 C932 C 0.60197 0.31222 0.55237
 C933 C 0.58141 0.30265 0.56240
 C934 C 0.57895 0.27769 0.56416
 C935 C 0.59742 0.26255 0.55522
 C936 C 0.61802 0.27219 0.54519
 H937 H 0.66693 0.36311 0.53550
 H938 H 0.70219 0.38512 0.52483
 H939 H 0.73436 0.32059 0.49389
 H940 H 0.69912 0.29880 0.50526
 H941 H 0.60368 0.33149 0.55164
 H942 H 0.56773 0.31481 0.56946
 H943 H 0.59598 0.24327 0.55608
 H944 H 0.63219 0.26028 0.53874
 C945 C 0.31500 0.15396 0.51953
 C946 C 0.30184 0.16073 0.50001
 C947 C 0.28215 0.14780 0.49463
 C948 C 0.27472 0.12835 0.50919
 C949 C 0.28913 0.12107 0.52796
 C950 C 0.30873 0.13396 0.53326
 C951 C 0.33498 0.16724 0.52587
 C952 C 0.35166 0.17765 0.53253
 C953 C 0.37134 0.18929 0.54199
 C954 C 0.39414 0.18352 0.53325
 C955 C 0.41331 0.19290 0.54432
 C956 C 0.40985 0.20800 0.56441
 C957 C 0.38685 0.21424 0.57258
 C958 C 0.36776 0.20492 0.56147
 H959 H 0.30681 0.17592 0.48893
 H960 H 0.27252 0.15309 0.47914
 H961 H 0.28572 0.10513 0.53847
 H962 H 0.31915 0.12817 0.54804
 H963 H 0.39712 0.17126 0.51833
 H964 H 0.43080 0.18761 0.53777
 H965 H 0.38364 0.22610 0.58778
 H966 H 0.35020 0.20943 0.56845
 C967 C 0.81240 0.66592 0.02528
 C968 C 0.81634 0.64555 0.01108
 C969 C 0.79754 0.63253 0.00365
 C970 C 0.77416 0.64004 0.00960
 C971 C 0.77060 0.66014 0.02481
 C972 C 0.78949 0.67314 0.03226
 C973 C 0.83204 0.67846 0.03369
 C974 C 0.84886 0.68822 0.04088
 C975 C 0.86920 0.69907 0.04987
 C976 C 0.89131 0.69452 0.03867
 C977 C 0.91129 0.70353 0.04850
 C978 C 0.90940 0.71710 0.06975
 C979 C 0.88703 0.72208 0.08050
 C980 C 0.86709 0.71309 0.07064
 H981 H 0.83403 0.63936 0.00617
 H982 H 0.80157 0.61620 -0.00623
 H983 H 0.75310 0.66570 0.03109
 H984 H 0.78624 0.68855 0.04381
 H985 H 0.89315 0.68357 0.02265
 H986 H 0.92827 0.69920 0.03995
 H987 H 0.88497 0.73278 0.09667
 H988 H 0.85008 0.71673 0.07946
 C989 C 0.69265 0.66362 0.97606
 C990 C 0.71392 0.67527 0.97695
 C991 C 0.73355 0.66322 0.98573
 C992 C 0.73203 0.63942 0.99436
 C993 C 0.71061 0.62778 0.99223
 C994 C 0.69114 0.63981 0.98354
 C995 C 0.67240 0.67540 0.96659
 C996 C 0.65494 0.68402 0.95846
 C997 C 0.63374 0.69294 0.94834
 C998 C 0.62291 0.71440 0.95642
 C999 C 0.60214 0.72264 0.94653
 C1000 C 0.59203 0.70949 0.92840
 C1001 C 0.60297 0.68783 0.92063
 C1002 C 0.62366 0.67965 0.93052
 H1003 H 0.71544 0.69353 0.97055
 H1004 H 0.74989 0.67248 0.98517
 H1005 H 0.70895 0.60919 0.99751
 H1006 H 0.67491 0.63042 0.98243
 H1007 H 0.63052 0.72478 0.97028
 H1008 H 0.59424 0.73948 0.95271
 H1009 H 0.59544 0.67710 0.90699
 H1010 H 0.63178 0.66291 0.92429
 C1011 C 0.18941 0.15497 0.48923
 C1012 C 0.19155 0.13069 0.48347
 C1013 C 0.21208 0.11778 0.48791
 C1014 C 0.23135 0.12899 0.49758
 C1015 C 0.22835 0.15323 0.50463
 C1016 C 0.20770 0.16616 0.50012
 C1017 C 0.16865 0.16828 0.48311
 C1018 C 0.15123 0.17869 0.47687
 C1019 C 0.13059 0.19032 0.46804
 C1020 C 0.10835 0.18456 0.47760
 C1021 C 0.08830 0.19396 0.46720
 C1022 C 0.09030 0.20907 0.44697
 C1023 C 0.11273 0.21533 0.43800
 C1024 C 0.13271 0.20599 0.44845
 H1025 H 0.17739 0.12172 0.47533
 H1026 H 0.21316 0.09895 0.48332
 H1027 H 0.24166 0.16232 0.51389
 H1028 H 0.20603 0.18488 0.50511
 H1029 H 0.10651 0.17228 0.49265
 H1030 H 0.07127 0.18867 0.47436
 H1031 H 0.11482 0.22721 0.42268
 H1032 H 0.14982 0.21052 0.44086
 C1033 C 0.57285 0.05940 0.73758
 C1034 C 0.58437 0.06099 0.75903
 C1035 C 0.59953 0.04243 0.76594
 C1036 C 0.60419 0.02229 0.75095
 C1037 C 0.59067 0.02012 0.73055
 C1038 C 0.57553 0.03865 0.72371
 C1039 C 0.55957 0.07959 0.72888
 C1040 C 0.54930 0.09662 0.72063
 C1041 C 0.53804 0.11695 0.70969
 C1042 C 0.54372 0.14020 0.71613
 C1043 C 0.53473 0.15993 0.70369
 C1044 C 0.52003 0.15661 0.68455
 C1045 C 0.51386 0.13319 0.67870
 C1046 C 0.52285 0.11351 0.69117
 H1047 H 0.58195 0.07676 0.77023
 H1048 H 0.60758 0.04418 0.78295
 H1049 H 0.59269 0.00440 0.71925
 H1050 H 0.56640 0.03704 0.70724
 H1051 H 0.55564 0.14306 0.73029
 H1052 H 0.54002 0.17769 0.70844
 H1053 H 0.50233 0.13008 0.66427
 H1054 H 0.51840 0.09558 0.68598
 C1055 C 1.07747 0.56095 0.23016
 C1056 C 1.10129 0.56251 0.23395
 C1057 C 1.11373 0.54280 0.24267
 C1058 C 1.10253 0.52113 0.24851
 C1059 C 1.07857 0.51961 0.24374
 C1060 C 1.06614 0.53944 0.23493
 C1061 C 1.06524 0.58116 0.22009
 C1062 C 1.05603 0.59839 0.21105
 C1063 C 1.04622 0.61912 0.19943
 C1064 C 1.05525 0.62573 0.17666
 C1065 C 1.04642 0.64611 0.16529
 C1066 C 1.02836 0.66024 0.17653
 C1067 C 1.01939 0.65352 0.19949
 C1068 C 1.02829 0.63304 0.21087
 H1069 H 1.11039 0.57890 0.22980
 H1070 H 1.13230 0.54442 0.24489
 H1071 H 1.06943 0.50302 0.24608
 H1072 H 1.04782 0.53784 0.23138
 H1073 H 1.06927 0.61521 0.16774
 H1074 H 1.05400 0.65103 0.14783
 H1075 H 1.00536 0.66392 0.20850
 H1076 H 1.02122 0.62811 0.22855
 C1077 C 0.92123 0.94705 0.22420
 C1078 C 0.90361 0.95609 0.21000
 C1079 C 0.89114 0.97701 0.21656
 C1080 C 0.89647 0.99002 0.23725
 C1081 C 0.91361 0.97991 0.25203
 C1082 C 0.92611 0.95886 0.24537
 C1083 C 0.93356 0.92529 0.21685
 C1084 C 0.94272 0.90703 0.20909
 C1085 C 0.95216 0.88539 0.19799
 C1086 C 0.94785 0.88116 0.17392
 C1087 C 0.95533 0.85968 0.16304
 C1088 C 0.96725 0.84199 0.17609
 C1089 C 0.97213 0.84657 0.20013
 C1090 C 0.96450 0.86816 0.21107
 H1091 H 0.89922 0.94671 0.19390
 H1092 H 0.87691 0.98241 0.20553
 H1093 H 0.91733 0.98843 0.26878
 H1094 H 0.93939 0.95173 0.25683
 H1095 H 0.93835 0.89437 0.16361
 H1096 H 0.95169 0.85684 0.14439
 H1097 H 0.98120 0.83321 0.21061
 H1098 H 0.96786 0.87122 0.22976
 C1099 C 0.41694 0.44062 0.72349
 C1100 C 0.42209 0.45229 0.74467
 C1101 C 0.40989 0.47349 0.75144
 C1102 C 0.39281 0.48386 0.73677
 C1103 C 0.38720 0.47099 0.71609
 C1104 C 0.39938 0.44994 0.70940
 C1105 C 0.42891 0.41871 0.71600
 C1106 C 0.43773 0.40036 0.70808
 C1107 C 0.44681 0.37865 0.69686
 C1108 C 0.45922 0.36136 0.70977
 C1109 C 0.46673 0.33982 0.69870
 C1110 C 0.46173 0.33533 0.67467
 C1111 C 0.44961 0.35303 0.66181
 C1112 C 0.44222 0.37448 0.67284
 H1113 H 0.43533 0.44493 0.75604
 H1114 H 0.41378 0.48191 0.76820
 H1115 H 0.37298 0.47660 0.70515
 H1116 H 0.39478 0.44069 0.69331
 H1117 H 0.46277 0.36437 0.72842
 H1118 H 0.47591 0.32645 0.70907
 H1119 H 0.44586 0.35028 0.64318
 H1120 H 0.43265 0.38774 0.66267
 C1121 C 0.41932 0.56735 0.76621
 C1122 C 0.43078 0.54794 0.75450
 C1123 C 0.41804 0.52835 0.74732
 C1124 C 0.39363 0.52753 0.75248
 C1125 C 0.38233 0.54802 0.76300
 C1126 C 0.39504 0.56749 0.77006
 C1127 C 0.43222 0.58683 0.77530
 C1128 C 0.44198 0.60325 0.78413
 C1129 C 0.45240 0.62279 0.79610
 C1130 C 0.46866 0.63738 0.78397
 C1131 C 0.47816 0.65661 0.79591
 C1132 C 0.47149 0.66138 0.82013
 C1133 C 0.45511 0.64658 0.83205
 C1134 C 0.44568 0.62746 0.82013
 H1135 H 0.44956 0.54788 0.75099
 H1136 H 0.42746 0.51414 0.73761
 H1137 H 0.36352 0.54863 0.76629
 H1138 H 0.38592 0.58255 0.77885
 H1139 H 0.47395 0.63395 0.76534
 H1140 H 0.49086 0.66757 0.78632
 H1141 H 0.44925 0.65002 0.85052
 H1142 H 0.43297 0.61640 0.82963
 C1143 C -0.07738 0.07323 0.26735
 C1144 C -0.06589 0.05399 0.25536
 C1145 C -0.07862 0.03463 0.24765
 C1146 C -0.10307 0.03381 0.25259
 C1147 C -0.11443 0.05426 0.26309
 C1148 C -0.10172 0.07353 0.27069
 C1149 C -0.06444 0.09208 0.27758
 C1150 C -0.05458 0.10779 0.28748
 C1151 C -0.04405 0.12633 0.30081
 C1152 C -0.02670 0.14068 0.29016
 C1153 C -0.01702 0.15886 0.30347
 C1154 C -0.02458 0.16281 0.32761
 C1155 C -0.04204 0.14826 0.33804
 C1156 C -0.05165 0.13019 0.32476
 H1157 H -0.04706 0.05382 0.25223
 H1158 H -0.06913 0.02049 0.23789
 H1159 H -0.13326 0.05487 0.26622
 H1160 H -0.11087 0.08846 0.27968
 H1161 H -0.02070 0.13786 0.27162
 H1162 H -0.00351 0.16966 0.29499
 H1163 H -0.04861 0.15112 0.35639
 H1164 H -0.06517 0.11930 0.33314
 C1165 C 0.07842 0.44017 0.28890
 C1166 C 0.07293 0.46381 0.29571
 C1167 C 0.08527 0.48269 0.28505
 C1168 C 0.10295 0.47842 0.26682
 C1169 C 0.10882 0.45429 0.26099
 C1170 C 0.09646 0.43550 0.27164
 C1171 C 0.06661 0.42047 0.30045
 C1172 C 0.05757 0.40344 0.31006
 C1173 C 0.04786 0.38259 0.32162
 C1174 C 0.05248 0.37761 0.34557
 C1175 C 0.04487 0.35639 0.35635
 C1176 C 0.03257 0.33976 0.34327
 C1177 C 0.02742 0.34521 0.31940
 C1178 C 0.03511 0.36647 0.30862
 H1179 H 0.05937 0.46762 0.30953
 H1180 H 0.08109 0.50077 0.29112
 H1181 H 0.12341 0.44962 0.24869
 H1182 H 0.10134 0.41721 0.26675
 H1183 H 0.06235 0.38994 0.35580
 H1184 H 0.04877 0.35288 0.37488
 H1185 H 0.01816 0.33267 0.30883
 H1186 H 0.03156 0.37008 0.29000
 C1187 C 0.57801 0.94163 0.77713
 C1188 C 0.57844 0.96181 0.79183
 C1189 C 0.59216 0.98121 0.78483
 C1190 C 0.60652 0.98045 0.76343
 C1191 C 0.60425 0.96072 0.74793
 C1192 C 0.59050 0.94138 0.75495
 C1193 C 0.56599 0.92058 0.78535
 C1194 C 0.55704 0.90240 0.79244
 C1195 C 0.54779 0.88012 0.80123
 C1196 C 0.52590 0.87949 0.81359
 C1197 C 0.51808 0.85800 0.82382
 C1198 C 0.53218 0.83699 0.82192
 C1199 C 0.55379 0.83771 0.80882
 C1200 C 0.56152 0.85911 0.79858
 H1201 H 0.56853 0.96239 0.80890
 H1202 H 0.59222 0.99662 0.79655
 H1203 H 0.61292 0.96000 0.73028
 H1204 H 0.58984 0.92606 0.74315
 H1205 H 0.51518 0.89568 0.81584
 H1206 H 0.50146 0.85801 0.83398
 H1207 H 0.56487 0.82175 0.80681
 H1208 H 0.57847 0.85939 0.78904
 C1209 C 0.73617 0.58792 0.07110
 C1210 C 0.72285 0.60788 0.06428
 C1211 C 0.72832 0.61973 0.04278
 C1212 C 0.74685 0.61139 0.02701
 C1213 C 0.76126 0.59233 0.03510
 C1214 C 0.75566 0.58036 0.05670
 C1215 C 0.72896 0.57525 0.09262
 C1216 C 0.72090 0.56572 0.11050
 C1217 C 0.70901 0.55573 0.13141
 C1218 C 0.68716 0.56556 0.13892
 C1219 C 0.67457 0.55571 0.15841
 C1220 C 0.68361 0.53579 0.17075
 C1221 C 0.70583 0.52624 0.16346
 C1222 C 0.71845 0.53613 0.14378
 H1223 H 0.70807 0.61428 0.07561
 H1224 H 0.71793 0.63556 0.03873
 H1225 H 0.77663 0.58640 0.02442
 H1226 H 0.76643 0.56521 0.06207
 H1227 H 0.67972 0.58077 0.12952
 H1228 H 0.65772 0.56374 0.16388
 H1229 H 0.71316 0.51084 0.17260
 H1230 H 0.73534 0.52836 0.13806
 C1231 C 0.22810 1.06845 0.56178
 C1232 C 0.23162 1.09282 0.56509
 C1233 C 0.23973 1.10691 0.54589
 C1234 C 0.24520 1.09684 0.52300
 C1235 C 0.24041 1.07238 0.51971
 C1236 C 0.23225 1.05829 0.53903
 C1237 C 0.21944 1.05431 0.58174
 C1238 C 0.21185 1.04337 0.59896
 C1239 C 0.20222 1.03145 0.61996
 C1240 C 0.20878 1.03826 0.64276
 C1241 C 0.19760 1.02870 0.66336
 C1242 C 0.17962 1.01225 0.66138
 C1243 C 0.17376 1.00485 0.63837
 C1244 C 0.18497 1.01444 0.61779
 H1245 H 0.22796 1.10101 0.58252
 H1246 H 0.24202 1.12583 0.54893
 H1247 H 0.24242 1.06406 0.50224
 H1248 H 0.22890 1.03955 0.53614
 H1249 H 0.22201 1.05155 0.64462
 H1250 H 0.20230 1.03497 0.68079
 H1251 H 0.16020 0.99198 0.63629
 H1252 H 0.17974 1.00908 0.60022
 C1253 C 0.22166 0.91326 0.94270
 C1254 C 0.22721 0.88882 0.94097
 C1255 C 0.23613 0.87653 0.96044
 C1256 C 0.24039 0.88849 0.98203
 C1257 C 0.23368 0.91301 0.98386
 C1258 C 0.22469 0.92532 0.96423
 C1259 C 0.21222 0.92537 0.92236
 C1260 C 0.20423 0.93403 0.90459
 C1261 C 0.19451 0.94259 0.88273
 C1262 C 0.19365 0.92692 0.86331
 C1263 C 0.18308 0.93429 0.84239
 C1264 C 0.17317 0.95750 0.84060
 C1265 C 0.17460 0.97340 0.85998
 C1266 C 0.18517 0.96593 0.88099
 H1267 H 0.22449 0.87917 0.92455
 H1268 H 0.23993 0.85750 0.95864
 H1269 H 0.23483 0.92271 1.00048
 H1270 H 0.21984 0.94415 0.96595
 H1271 H 0.20088 0.90883 0.86445
 H1272 H 0.18254 0.92179 0.82764
 H1273 H 0.16693 0.99130 0.85917
 H1274 H 0.18568 0.97818 0.89597
 C1275 C 0.71667 0.41241 0.44422
 C1276 C 0.72226 0.38809 0.44119
 C1277 C 0.73106 0.37472 0.46008
 C1278 C 0.73516 0.38550 0.48234
 C1279 C 0.72849 0.40994 0.48537
 C1280 C 0.71963 0.42328 0.46638
 C1281 C 0.70692 0.42577 0.42481
 C1282 C 0.69841 0.43613 0.40822
 C1283 C 0.68775 0.44742 0.38809
 C1284 C 0.66419 0.44356 0.38430
 C1285 C 0.65406 0.45279 0.36382
 C1286 C 0.66740 0.46598 0.34678
 C1287 C 0.69091 0.47037 0.35105
 C1288 C 0.70105 0.46105 0.37158
 H1289 H 0.71955 0.37934 0.42426
 H1290 H 0.73479 0.35578 0.45736
 H1291 H 0.72943 0.41877 0.50249
 H1292 H 0.71471 0.44198 0.46912
 H1293 H 0.65374 0.43304 0.39696
 H1294 H 0.63582 0.44946 0.36121
 H1295 H 0.70163 0.48032 0.33816
 H1296 H 0.71935 0.46403 0.37430
 C1297 C 0.76950 0.40894 0.56359
 C1298 C 0.75402 0.39035 0.56790
 C1299 C 0.74546 0.37782 0.54874
 C1300 C 0.75165 0.38411 0.52466
 C1301 C 0.76815 0.40229 0.52078
 C1302 C 0.77670 0.41479 0.54001
 C1303 C 0.77875 0.42121 0.58350
 C1304 C 0.78661 0.43100 0.60042
 C1305 C 0.79629 0.44210 0.62078
 C1306 C 0.78986 0.43440 0.64406
 C1307 C 0.80032 0.44412 0.66383
 C1308 C 0.81740 0.46162 0.66051
 C1309 C 0.82335 0.46962 0.63706
 C1310 C 0.81287 0.45988 0.61733
 H1311 H 0.74888 0.38521 0.58614
 H1312 H 0.73445 0.36282 0.55304
 H1313 H 0.77443 0.40681 0.50271
 H1314 H 0.78915 0.42881 0.53649
 H1315 H 0.77711 0.42055 0.64690
 H1316 H 0.79558 0.43740 0.68162
 H1317 H 0.83621 0.48330 0.63397
 H1318 H 0.81793 0.46598 0.59938
 C1319 C 0.27759 -0.08565 0.06161
 C1320 C 0.26236 -0.10426 0.06692
 C1321 C 0.25289 -0.11704 0.04843
 C1322 C 0.25789 -0.11102 0.02404
 C1323 C 0.27400 -0.09268 0.01909
 C1324 C 0.28347 -0.07993 0.03766
 C1325 C 0.28808 -0.07343 0.08085
 C1326 C 0.29698 -0.06382 0.09730
 C1327 C 0.30783 -0.05303 0.11717
 C1328 C 0.30242 -0.06086 0.14064
 C1329 C 0.31384 -0.05136 0.15990
 C1330 C 0.33090 -0.03393 0.15591
 C1331 C 0.33590 -0.02586 0.13228
 C1332 C 0.32445 -0.03538 0.11305
 H1333 H 0.25821 -0.10930 0.08542
 H1334 H 0.24222 -0.13210 0.05346
 H1335 H 0.27943 -0.08837 0.00072
 H1336 H 0.29570 -0.06590 0.03333
 H1337 H 0.28965 -0.07460 0.14401
 H1338 H 0.30980 -0.05814 0.17783
 H1339 H 0.34870 -0.01222 0.12867
 H1340 H 0.32875 -0.02918 0.09495
 C1341 C 0.28230 0.07636 0.43799
 C1342 C 0.26604 0.09522 0.43577
 C1343 C 0.25666 0.10711 0.45615
 C1344 C 0.26278 0.09989 0.47945
 C1345 C 0.28015 0.08156 0.48119
 C1346 C 0.28954 0.06968 0.46071
 C1347 C 0.29222 0.06483 0.41667
 C1348 C 0.30030 0.05612 0.39822
 C1349 C 0.30985 0.04700 0.37561
 C1350 C 0.30735 0.06072 0.35478
 C1351 C 0.31771 0.05289 0.33291
 C1352 C 0.33076 0.03119 0.33155
 C1353 C 0.33264 0.01715 0.35243
 C1354 C 0.32228 0.02507 0.37437
 H1355 H 0.26088 0.10104 0.41818
 H1356 H 0.24503 0.12232 0.45335
 H1357 H 0.28640 0.07637 0.49854
 H1358 H 0.30260 0.05549 0.46260
 H1359 H 0.29770 0.07768 0.35552
 H1360 H 0.31571 0.06392 0.31706
 H1361 H 0.34277 0.00048 0.35195
 H1362 H 0.32435 0.01434 0.39042
 C1363 C 0.76962 0.57939 0.94052
 C1364 C 0.77493 0.60364 0.94026
 C1365 C 0.76967 0.61775 0.96046
 C1366 C 0.75958 0.60783 0.98180
 C1367 C 0.75321 0.58353 0.98131
 C1368 C 0.75854 0.56938 0.96097
 C1369 C 0.77566 0.56520 0.91953
 C1370 C 0.78156 0.55466 0.90130
 C1371 C 0.78963 0.54381 0.87893
 C1372 C 0.78732 0.55669 0.85755
 C1373 C 0.79788 0.54802 0.83609
 C1374 C 0.81094 0.52633 0.83572
 C1375 C 0.81229 0.51291 0.85706
 C1376 C 0.80177 0.52169 0.87860
 H1377 H 0.78312 0.61171 0.92436
 H1378 H 0.77367 0.63659 0.95955
 H1379 H 0.74370 0.57541 0.99633
 H1380 H 0.75382 0.55073 0.96113
 H1381 H 0.77804 0.57386 0.85762
 H1382 H 0.79634 0.55858 0.81986
 H1383 H 0.82241 0.49626 0.85731
 H1384 H 0.80383 0.51168 0.89510
 C1385 C 0.06062 0.73126 0.57464
 C1386 C 0.04270 0.74312 0.56275
 C1387 C 0.02153 0.74925 0.57521
 C1388 C 0.01765 0.74283 0.59966
 C1389 C 0.03656 0.73217 0.61154
 C1390 C 0.05760 0.72617 0.59912
 C1391 C 0.08189 0.72326 0.56197
 C1392 C 0.09984 0.71517 0.55266
 C1393 C 0.12117 0.70388 0.54311
 C1394 C 0.13414 0.71388 0.52377
 C1395 C 0.15479 0.70235 0.51480
 C1396 C 0.16256 0.68065 0.52506
 C1397 C 0.14948 0.67097 0.54463
 C1398 C 0.12896 0.68249 0.55353
 H1399 H 0.04505 0.74758 0.54386
 H1400 H 0.00848 0.75916 0.56560
 H1401 H 0.03478 0.72796 0.63053
 H1402 H 0.07146 0.71726 0.60862
 H1403 H 0.12826 0.73047 0.51558
 H1404 H 0.16444 0.71013 0.49963
 H1405 H 0.15521 0.65455 0.55322
 H1406 H 0.11915 0.67467 0.56860
 C1407 C 0.56436 0.24602 1.07256
 C1408 C 0.56203 0.24206 1.09729
 C1409 C 0.54114 0.24809 1.10993
 C1410 C 0.52173 0.25766 1.09805
 C1411 C 0.52497 0.26325 1.07333
 C1412 C 0.54599 0.25705 1.06064
 C1413 C 0.58519 0.23721 1.05971
 C1414 C 0.60275 0.22822 1.05048
 C1415 C 0.62356 0.21573 1.04130
 C1416 C 0.63029 0.19428 1.05235
 C1417 C 0.65040 0.18170 1.04402
 C1418 C 0.66414 0.19036 1.02441
 C1419 C 0.65737 0.21206 1.01344
 C1420 C 0.63713 0.22468 1.02185
 H1421 H 0.57623 0.23377 1.10678
 H1422 H 0.53980 0.24449 1.12905
 H1423 H 0.51146 0.27236 1.06363
 H1424 H 0.54781 0.26061 1.04151
 H1425 H 0.61999 0.18728 1.06752
 H1426 H 0.65537 0.16531 1.05313
 H1427 H 0.66753 0.21907 0.99821
 H1428 H 0.63206 0.24130 1.01319
 C1429 C 0.94215 0.23315 0.91782
 C1430 C 0.95057 0.21867 0.89881
 C1431 C 0.97124 0.22409 0.88599
 C1432 C 0.98460 0.24382 0.89237
 C1433 C 0.97505 0.25913 0.91074
 C1434 C 0.95424 0.25360 0.92364
 C1435 C 0.92095 0.22652 0.93078
 C1436 C 0.90326 0.21894 0.94025
 C1437 C 0.88249 0.20768 0.94981
 C1438 C 0.87992 0.18326 0.94557
 C1439 C 0.85933 0.17207 0.95303
 C1440 C 0.84092 0.18517 0.96487
 C1441 C 0.84380 0.20961 0.96965
 C1442 C 0.86449 0.22086 0.96204
 H1443 H 0.94099 0.20316 0.89371
 H1444 H 0.97631 0.21285 0.87077
 H1445 H 0.98388 0.27529 0.91522
 H1446 H 0.94757 0.26528 0.93802
 H1447 H 0.89374 0.17289 0.93612
 H1448 H 0.85777 0.15314 0.94947
 H1449 H 0.82984 0.22013 0.97865
 H1450 H 0.86627 0.23981 0.96531
 C1451 C 0.44242 0.73288 0.42513
 C1452 C 0.46478 0.72569 0.43177
 C1453 C 0.48458 0.73506 0.41982
 C1454 C 0.48251 0.75227 0.40129
 C1455 C 0.45966 0.75891 0.39464
 C1456 C 0.43996 0.74957 0.40664
 C1457 C 0.42196 0.72179 0.43570
 C1458 C 0.40450 0.71227 0.44349
 C1459 C 0.38344 0.70056 0.45161
 C1460 C 0.38045 0.67657 0.44565
 C1461 C 0.35949 0.66543 0.45205
 C1462 C 0.34115 0.67816 0.46449
 C1463 C 0.34445 0.70217 0.47079
 C1464 C 0.36546 0.71332 0.46431
 H1465 H 0.46692 0.71232 0.44569
 H1466 H 0.50167 0.72844 0.42467
 H1467 H 0.45672 0.77052 0.37946
 H1468 H 0.42273 0.75476 0.40089
 H1469 H 0.39424 0.66654 0.43579
 H1470 H 0.35766 0.64681 0.44732
 H1471 H 0.33059 0.71248 0.48020
 H1472 H 0.36753 0.73195 0.46887
 C1473 C 0.56238 0.78512 0.42683
 C1474 C 0.56532 0.78033 0.40229
 C1475 C 0.54664 0.77236 0.38965
 C1476 C 0.52462 0.76831 0.40135
 C1477 C 0.52163 0.77438 0.42596
 C1478 C 0.54045 0.78241 0.43861
 C1479 C 0.58197 0.79330 0.43946
 C1480 C 0.59899 0.80025 0.44894
 C1481 C 0.61984 0.80883 0.45904
 C1482 C 0.64176 0.79943 0.45103
 C1483 C 0.66220 0.80918 0.45905
 C1484 C 0.66097 0.82855 0.47515
 C1485 C 0.63884 0.83740 0.48366
 C1486 C 0.61842 0.82762 0.47561
 H1487 H 0.58210 0.78281 0.39286
 H1488 H 0.54944 0.76897 0.37059
 H1489 H 0.50479 0.77338 0.43550
 H1490 H 0.53784 0.78668 0.45752
 H1491 H 0.64306 0.78498 0.43807
 H1492 H 0.67894 0.80216 0.45195
 H1493 H 0.63732 0.85208 0.49633
 H1494 H 0.60155 0.83505 0.48191
 C1495 C 0.06704 0.26787 -0.08066
 C1496 C 0.06730 0.27203 -0.10540
 C1497 C 0.04803 0.26634 -0.11840
 C1498 C 0.02768 0.25698 -0.10688
 C1499 C 0.02826 0.25166 -0.08206
 C1500 C 0.04764 0.25742 -0.06905
 C1501 C 0.08662 0.27497 -0.06740
 C1502 C 0.10319 0.28188 -0.05713
 C1503 C 0.12304 0.29133 -0.04588
 C1504 C 0.14574 0.28408 -0.05369
 C1505 C 0.16504 0.29543 -0.04491
 C1506 C 0.16181 0.31428 -0.02831
 C1507 C 0.13895 0.32081 -0.01990
 C1508 C 0.11970 0.30942 -0.02867
 H1509 H 0.08237 0.27981 -0.11466
 H1510 H 0.04879 0.26961 -0.13759
 H1511 H 0.01407 0.24271 -0.07257
 H1512 H 0.04749 0.25366 -0.04995
 H1513 H 0.14850 0.27023 -0.06717
 H1514 H 0.18240 0.29018 -0.05189
 H1515 H 0.13595 0.33504 -0.00688
 H1516 H 0.10221 0.31522 -0.02255
 C1517 C 0.43757 0.28116 0.07195
 C1518 C 0.44290 0.29527 0.09144
 C1519 C 0.46246 0.28975 0.10452
 C1520 C 0.47777 0.27031 0.09794
 C1521 C 0.47140 0.25551 0.07890
 C1522 C 0.45171 0.26111 0.06579
 C1523 C 0.41718 0.28745 0.05896
 C1524 C 0.39982 0.29434 0.04936
 C1525 C 0.37897 0.30443 0.03953
 C1526 C 0.37392 0.32889 0.04267
 C1527 C 0.35288 0.33887 0.03528
 C1528 C 0.33650 0.32452 0.02461
 C1529 C 0.34195 0.30007 0.02077
 C1530 C 0.36308 0.29004 0.02833
 H1531 H 0.43168 0.31047 0.09679
 H1532 H 0.46504 0.30058 0.12014
 H1533 H 0.48177 0.23958 0.07416
 H1534 H 0.44745 0.24972 0.05103
 H1535 H 0.38608 0.34019 0.05132
 H1536 H 0.34932 0.35783 0.03809
 H1537 H 0.32958 0.28862 0.01269
 H1538 H 0.36677 0.27105 0.02593
 C1539 C 0.93490 0.77019 0.57261
 C1540 C 0.94847 0.74978 0.56628
 C1541 C 0.96766 0.74310 0.57972
 C1542 C 0.97416 0.75718 0.59923
 C1543 C 0.95932 0.77693 0.60603
 C1544 C 0.94025 0.78351 0.59265
 C1545 C 0.91524 0.77787 0.55910
 C1546 C 0.89862 0.78610 0.54911
 C1547 C 0.87879 0.79796 0.53889
 C1548 C 0.86121 0.78500 0.52864
 C1549 C 0.84098 0.79693 0.52105
 C1550 C 0.83812 0.82188 0.52395
 C1551 C 0.85623 0.83474 0.53355
 C1552 C 0.87637 0.82286 0.54096
 H1553 H 0.94418 0.73900 0.55107
 H1554 H 0.97761 0.72695 0.57479
 H1555 H 0.96196 0.78723 0.62199
 H1556 H 0.92947 0.79898 0.59812
 H1557 H 0.86285 0.76569 0.52708
 H1558 H 0.82724 0.78662 0.51378
 H1559 H 0.85465 0.85400 0.53564
 H1560 H 0.88983 0.83308 0.54889
   
