data_POSCAR
  _audit_creation_date              2014-09-24
  _audit_creation_method            'ToBaCCo'
  _symmetry_space_group_name_H-M    'P1'
  _symmetry_Int_Tables_number       1
  _symmetry_cell_setting            triclinic
  loop_
  _symmetry_equiv_pos_as_xyz
 x,y,z
_cell_length_a 73.3972
_cell_length_b 73.4088
_cell_length_c 73.7051
_cell_angle_alpha 90.007400
_cell_angle_beta 90.009400
_cell_angle_gamma 90.010800
loop_
  _atom_site_label
  _atom_site_type_symbol
  _atom_site_fract_x
  _atom_site_fract_y
  _atom_site_fract_z
N1 N 0.17401 0.21821 0.22081
 N2 N 0.17772 0.20304 0.22955
 C3 C 0.16592 0.20113 0.24342
 C4 C 0.15422 0.21588 0.24329
 C5 C 0.15974 0.22646 0.22879
 H6 H 0.16575 0.18984 0.25284
 H7 H 0.15366 0.23909 0.22429
 Cu8 Cu 0.19732 0.18697 0.22192
 Cu9 Cu 0.18763 0.22587 0.19951
 Cu10 Cu 0.22522 0.20000 0.18792
 N11 N 0.21983 0.17409 0.21654
 N12 N 0.23069 0.17919 0.20330
 C13 C 0.24496 0.16769 0.20245
 C14 C 0.24288 0.15472 0.21587
 C15 C 0.22682 0.15918 0.22458
 H16 H 0.25591 0.16854 0.19267
 H17 H 0.22065 0.15201 0.23583
 N18 N 0.21746 0.22153 0.17400
 N19 N 0.20310 0.23141 0.17840
 C20 C 0.20127 0.24504 0.16629
 C21 C 0.21514 0.24363 0.15371
 C22 C 0.22514 0.22860 0.15897
 H23 H 0.19061 0.25521 0.16651
 H24 H 0.23708 0.22322 0.15226
 H25 H 0.19726 0.20057 0.19165
 H26 H 0.21143 0.21363 0.20829
 N27 N 0.67354 0.71812 0.72071
 N28 N 0.67801 0.70367 0.73026
 C29 C 0.66610 0.70176 0.74405
 C30 C 0.65356 0.71575 0.74302
 C31 C 0.65866 0.72587 0.72806
 H32 H 0.66646 0.69102 0.75409
 H33 H 0.65201 0.73796 0.72292
 Cu34 Cu 0.69893 0.68879 0.72369
 Cu35 Cu 0.68730 0.72586 0.69949
 Cu36 Cu 0.72509 0.70001 0.68795
 N37 N 0.72039 0.67463 0.71724
 N38 N 0.73055 0.67909 0.70324
 C39 C 0.74436 0.66711 0.70175
 C40 C 0.74274 0.65450 0.71556
 C41 C 0.72741 0.65965 0.72514
 H42 H 0.75477 0.66749 0.69137
 H43 H 0.72181 0.65291 0.73693
 N44 N 0.71737 0.72165 0.67415
 N45 N 0.70297 0.73150 0.67850
 C46 C 0.70126 0.74524 0.66649
 C47 C 0.71525 0.74393 0.65404
 C48 C 0.72519 0.72886 0.65926
 H49 H 0.69063 0.75543 0.66670
 H50 H 0.73721 0.72355 0.65263
 H51 H 0.69732 0.70047 0.69274
 H52 H 0.71183 0.71490 0.70780
 N53 N 0.32579 0.78210 0.72079
 N54 N 0.32137 0.79660 0.73030
 C55 C 0.33329 0.79852 0.74408
 C56 C 0.34579 0.78449 0.74309
 C57 C 0.34065 0.77433 0.72818
 H58 H 0.33297 0.80930 0.75408
 H59 H 0.34727 0.76220 0.72307
 Cu60 Cu 0.30050 0.81154 0.72368
 Cu61 Cu 0.31202 0.77435 0.69958
 Cu62 Cu 0.27431 0.80027 0.68793
 N63 N 0.27905 0.82569 0.71719
 N64 N 0.26888 0.82123 0.70319
 C65 C 0.25510 0.83324 0.70166
 C66 C 0.25674 0.84589 0.71546
 C67 C 0.27206 0.84070 0.72508
 H68 H 0.24470 0.83285 0.69126
 H69 H 0.27770 0.84741 0.73688
 N70 N 0.28200 0.77857 0.67417
 N71 N 0.29638 0.76870 0.67858
 C72 C 0.29809 0.75494 0.66659
 C73 C 0.28414 0.75625 0.65410
 C74 C 0.27420 0.77135 0.65927
 H75 H 0.30871 0.74474 0.66685
 H76 H 0.26222 0.77667 0.65259
 H77 H 0.30205 0.79976 0.69276
 H78 H 0.28749 0.78543 0.70786
 N79 N 0.82661 0.28163 0.22091
 N80 N 0.82190 0.29582 0.23074
 C81 C 0.83381 0.29771 0.24455
 C82 C 0.84662 0.28395 0.24323
 C83 C 0.84164 0.27400 0.22809
 H84 H 0.83327 0.30828 0.25476
 H85 H 0.84848 0.26213 0.22268
 Cu86 Cu 0.80073 0.31045 0.22438
 Cu87 Cu 0.81296 0.27404 0.19954
 Cu88 Cu 0.77515 0.29990 0.18803
 N89 N 0.77950 0.32487 0.21775
 N90 N 0.76956 0.32066 0.20350
 C91 C 0.75587 0.33275 0.20191
 C92 C 0.75732 0.34518 0.21590
 C93 C 0.77244 0.33982 0.22570
 H94 H 0.74564 0.33257 0.19134
 H95 H 0.77788 0.34638 0.23767
 N96 N 0.78300 0.27840 0.17407
 N97 N 0.79741 0.26855 0.17843
 C98 C 0.79921 0.25492 0.16631
 C99 C 0.78528 0.25629 0.15379
 C100 C 0.77527 0.27129 0.15909
 H101 H 0.80986 0.24474 0.16650
 H102 H 0.76326 0.27661 0.15245
 H103 H 0.80284 0.29951 0.19320
 H104 H 0.78821 0.28463 0.20768
 N105 N 0.82611 0.71827 0.27932
 N106 N 0.82174 0.70371 0.26987
 C107 C 0.83361 0.70186 0.25603
 C108 C 0.84609 0.71592 0.25700
 C109 C 0.84094 0.72608 0.27192
 H110 H 0.83333 0.69105 0.24608
 H111 H 0.84754 0.73823 0.27701
 Cu112 Cu 0.80100 0.68862 0.27655
 Cu113 Cu 0.81239 0.72595 0.30058
 Cu114 Cu 0.77471 0.70004 0.31223
 N115 N 0.77947 0.67458 0.28302
 N116 N 0.76923 0.67912 0.29695
 C117 C 0.75540 0.66715 0.29843
 C118 C 0.75704 0.65451 0.28464
 C119 C 0.77240 0.65964 0.27508
 H120 H 0.74494 0.66756 0.30876
 H121 H 0.77805 0.65287 0.26334
 N122 N 0.78244 0.72170 0.32603
 N123 N 0.79681 0.73157 0.32162
 C124 C 0.79855 0.74532 0.33361
 C125 C 0.78460 0.74402 0.34612
 C126 C 0.77465 0.72892 0.34093
 H127 H 0.80917 0.75553 0.33335
 H128 H 0.76266 0.72361 0.34760
 H129 H 0.80245 0.70053 0.30743
 H130 H 0.78790 0.71478 0.29221
 N131 N 0.32652 0.21825 -0.22101
 N132 N 0.32187 0.20401 -0.23079
 C133 C 0.33381 0.20210 -0.24455
 C134 C 0.34658 0.21591 -0.24326
 C135 C 0.34155 0.22590 -0.22817
 H136 H 0.33332 0.19150 -0.25473
 H137 H 0.34834 0.23782 -0.22280
 Cu138 Cu 0.30069 0.18937 -0.22445
 Cu139 Cu 0.31280 0.22590 -0.19972
 Cu140 Cu 0.27497 0.20003 -0.18825
 N141 N 0.27946 0.17494 -0.21784
 N142 N 0.26945 0.17921 -0.20367
 C143 C 0.25575 0.16711 -0.20210
 C144 C 0.25727 0.15462 -0.21603
 C145 C 0.27245 0.15996 -0.22577
 H146 H 0.24547 0.16733 -0.19159
 H147 H 0.27794 0.15336 -0.23769
 N148 N 0.28276 0.22159 -0.17434
 N149 N 0.29717 0.23144 -0.17869
 C150 C 0.29892 0.24514 -0.16663
 C151 C 0.28495 0.24381 -0.15416
 C152 C 0.27498 0.22877 -0.15942
 H153 H 0.30955 0.25533 -0.16684
 H154 H 0.26296 0.22346 -0.15279
 H155 H 0.30267 0.20043 -0.19331
 H156 H 0.28808 0.21523 -0.20791
 N157 N 0.67336 0.28157 -0.22076
 N158 N 0.67781 0.29601 -0.23034
 C159 C 0.66588 0.29790 -0.24412
 C160 C 0.65331 0.28389 -0.24305
 C161 C 0.65847 0.27378 -0.22807
 H162 H 0.66623 0.30865 -0.25415
 H163 H 0.65184 0.26170 -0.22287
 Cu164 Cu 0.69870 0.31097 -0.22378
 Cu165 Cu 0.68715 0.27389 -0.19953
 Cu166 Cu 0.72490 0.29981 -0.18802
 N167 N 0.72018 0.32513 -0.21735
 N168 N 0.73035 0.32069 -0.20335
 C169 C 0.74417 0.33267 -0.20188
 C170 C 0.74255 0.34526 -0.21571
 C171 C 0.72721 0.34010 -0.22529
 H172 H 0.75459 0.33232 -0.19151
 H173 H 0.72160 0.34682 -0.23709
 N174 N 0.71720 0.27819 -0.17416
 N175 N 0.70281 0.26831 -0.17852
 C176 C 0.70111 0.25459 -0.16649
 C177 C 0.71508 0.25594 -0.15401
 C178 C 0.72501 0.27102 -0.15925
 H179 H 0.69049 0.24438 -0.16670
 H180 H 0.73702 0.27635 -0.15261
 H181 H 0.69716 0.29932 -0.19281
 H182 H 0.71167 0.28490 -0.20788
 N183 N 0.17438 0.78207 0.27930
 N184 N 0.17922 0.79614 0.26937
 C185 C 0.16723 0.79812 0.25565
 C186 C 0.15429 0.78453 0.25709
 C187 C 0.15921 0.77460 0.27223
 H188 H 0.16784 0.80861 0.24537
 H189 H 0.15224 0.76283 0.27769
 Cu190 Cu 0.20074 0.81046 0.27526
 Cu191 Cu 0.18806 0.77445 0.30060
 Cu192 Cu 0.22586 0.80027 0.31213
 N193 N 0.22170 0.82507 0.28229
 N194 N 0.23145 0.82106 0.29671
 C195 C 0.24493 0.83338 0.29851
 C196 C 0.24351 0.84577 0.28444
 C197 C 0.22863 0.84011 0.27440
 H198 H 0.25496 0.83338 0.30926
 H199 H 0.22325 0.84653 0.26233
 N200 N 0.21803 0.77872 0.32604
 N201 N 0.20363 0.76888 0.32165
 C202 C 0.20184 0.75519 0.33370
 C203 C 0.21577 0.75651 0.34622
 C204 C 0.22577 0.77155 0.34099
 H205 H 0.19120 0.74500 0.33346
 H206 H 0.23778 0.77685 0.34765
 H207 H 0.19821 0.80007 0.30658
 H208 H 0.21293 0.78485 0.29253
 N209 N 0.46836 0.42375 0.47109
 N210 N 0.45442 0.42877 0.48111
 C211 C 0.45249 0.41692 0.49494
 C212 C 0.46596 0.40387 0.49347
 C213 C 0.47578 0.40858 0.47820
 H214 H 0.44209 0.41767 0.50531
 H215 H 0.48744 0.40148 0.47268
 Cu216 Cu 0.44012 0.45026 0.47508
 Cu217 Cu 0.47591 0.43719 0.44963
 Cu218 Cu 0.45016 0.47496 0.43792
 N219 N 0.42553 0.47119 0.46795
 N220 N 0.42950 0.48078 0.45341
 C221 C 0.41726 0.49431 0.45158
 C222 C 0.40499 0.49312 0.46574
 C223 C 0.41060 0.47831 0.47587
 H224 H 0.41723 0.50425 0.44075
 H225 H 0.40421 0.47312 0.48803
 N226 N 0.47158 0.46692 0.42396
 N227 N 0.48141 0.45254 0.42842
 C228 C 0.49508 0.45065 0.41636
 C229 C 0.49375 0.46450 0.40376
 C230 C 0.47874 0.47455 0.40894
 H231 H 0.50527 0.44002 0.41667
 H232 H 0.47347 0.48654 0.40224
 H233 H 0.46567 0.46218 0.45754
 H234 H 0.45030 0.44738 0.44372
 N235 N -0.03163 -0.07621 0.97045
 N236 N -0.04615 -0.07178 0.97993
 C237 C -0.04805 -0.08364 0.99375
 C238 C -0.03401 -0.09614 0.99280
 C239 C -0.02384 -0.09104 0.97788
 H240 H -0.05885 -0.08332 1.00372
 H241 H -0.01170 -0.09766 0.97281
 Cu242 Cu -0.06116 -0.05098 0.97325
 Cu243 Cu -0.02391 -0.06255 0.94918
 Cu244 Cu -0.04980 -0.02488 0.93745
 N245 N -0.07517 -0.02944 0.96674
 N246 N -0.07069 -0.01932 0.95272
 C247 C -0.08263 -0.00547 0.95122
 C248 C -0.09522 -0.00701 0.96506
 C249 C -0.09010 -0.02234 0.97467
 H250 H -0.08222 0.00493 0.94083
 H251 H -0.09684 -0.02790 0.98647
 N252 N -0.02817 -0.03267 0.92367
 N253 N -0.01828 -0.04701 0.92813
 C254 C -0.00451 -0.04873 0.91616
 C255 C -0.00584 -0.03482 0.90363
 C256 C -0.02096 -0.02491 0.90875
 H257 H 0.00574 -0.05932 0.91647
 H258 H -0.02629 -0.01294 0.90205
 H259 H -0.03498 -0.03803 0.95747
 H260 H -0.04930 -0.05262 0.94236
 N261 N 1.03188 0.57635 0.97059
 N262 N 1.04635 0.57185 0.98011
 C263 C 1.04829 0.58372 0.99392
 C264 C 1.03430 0.59627 0.99295
 C265 C 1.02414 0.59121 0.97800
 H266 H 1.05906 0.58334 1.00394
 H267 H 1.01204 0.59788 0.97290
 Cu268 Cu 1.06121 0.55094 0.97347
 Cu269 Cu 1.02411 0.56265 0.94933
 Cu270 Cu 1.04994 0.52490 0.93764
 N271 N 1.07532 0.52948 0.96696
 N272 N 1.07085 0.51936 0.95292
 C273 C 1.08281 0.50553 0.95141
 C274 C 1.09542 0.50709 0.96524
 C275 C 1.09028 0.52241 0.97486
 H276 H 1.08242 0.49515 0.94100
 H277 H 1.09702 0.52796 0.98668
 N278 N 1.02829 0.53269 0.92387
 N279 N 1.01844 0.54707 0.92831
 C280 C 1.00468 0.54881 0.91633
 C281 C 1.00597 0.53488 0.90381
 C282 C 1.02106 0.52492 0.90896
 H283 H 0.99447 0.55943 0.91661
 H284 H 1.02635 0.51294 0.90227
 H285 H 1.03508 0.53809 0.95756
 H286 H 1.04950 0.55264 0.94253
 N287 N 0.53180 0.07642 0.47068
 N288 N 0.54619 0.07183 0.48028
 C289 C 0.54814 0.08371 0.49410
 C290 C 0.53424 0.09636 0.49302
 C291 C 0.52414 0.09136 0.47801
 H292 H 0.55882 0.08324 0.50420
 H293 H 0.51211 0.09809 0.47286
 Cu294 Cu 0.56071 0.05066 0.47376
 Cu295 Cu 0.52396 0.06270 0.44943
 Cu296 Cu 0.54990 0.02499 0.43763
 N297 N 0.57527 0.02960 0.46699
 N298 N 0.57092 0.01957 0.45284
 C299 C 0.58301 0.00589 0.45120
 C300 C 0.59557 0.00742 0.46508
 C301 C 0.59028 0.02259 0.47485
 H302 H 0.58272 -0.00442 0.44072
 H303 H 0.59692 0.02805 0.48676
 N304 N 0.52815 0.03271 0.42397
 N305 N 0.51828 0.04707 0.42843
 C306 C 0.50449 0.04880 0.41648
 C307 C 0.50578 0.03486 0.40397
 C308 C 0.52089 0.02493 0.40908
 H309 H 0.49427 0.05940 0.41678
 H310 H 0.52621 0.01296 0.40237
 H311 H 0.53474 0.03795 0.45744
 H312 H 0.54937 0.05262 0.44277
 N313 N -0.03174 0.07625 0.52909
 N314 N -0.04576 0.07129 0.51914
 C315 C -0.04771 0.08315 0.50531
 C316 C -0.03416 0.09614 0.50672
 C317 C -0.02428 0.09138 0.52194
 H318 H -0.05817 0.08245 0.49501
 H319 H -0.01256 0.09843 0.52741
 Cu320 Cu -0.06013 0.04989 0.52527
 Cu321 Cu -0.02415 0.06276 0.55052
 Cu322 Cu -0.04997 0.02504 0.56228
 N323 N -0.07477 0.02899 0.53241
 N324 N -0.07073 0.01934 0.54688
 C325 C -0.08297 0.00579 0.54870
 C326 C -0.09532 0.00707 0.53461
 C327 C -0.08975 0.02193 0.52454
 H328 H -0.08295 -0.00421 0.55946
 H329 H -0.09620 0.02718 0.51242
 N330 N -0.02845 0.03299 0.57615
 N331 N -0.01862 0.04738 0.57171
 C332 C -0.00490 0.04920 0.58373
 C333 C -0.00620 0.03530 0.59628
 C334 C -0.02125 0.02529 0.59110
 H335 H 0.00531 0.05982 0.58343
 H336 H -0.02651 0.01327 0.59778
 H337 H -0.03452 0.03784 0.54261
 H338 H -0.04975 0.05264 0.55657
 N339 N 0.46821 0.57595 0.02924
 N340 N 0.45427 0.57092 0.01921
 C341 C 0.45237 0.58275 0.00535
 C342 C 0.46585 0.59581 0.00682
 C343 C 0.47565 0.59110 0.02212
 H344 H 0.44198 0.58199 -0.00503
 H345 H 0.48731 0.59820 0.02764
 Cu346 Cu 0.43992 0.54949 0.02531
 Cu347 Cu 0.47576 0.56249 0.05071
 Cu348 Cu 0.45003 0.52466 0.06235
 N349 N 0.42533 0.52852 0.03237
 N350 N 0.42933 0.51888 0.04687
 C351 C 0.41711 0.50532 0.04865
 C352 C 0.40480 0.50656 0.03452
 C353 C 0.41039 0.52142 0.02445
 H354 H 0.41711 0.49533 0.05944
 H355 H 0.40397 0.52665 0.01232
 N356 N 0.47146 0.53267 0.07631
 N357 N 0.48125 0.54711 0.07193
 C358 C 0.49493 0.54896 0.08399
 C359 C 0.49365 0.53502 0.09651
 C360 C 0.47866 0.52496 0.09127
 H361 H 0.50511 0.55961 0.08373
 H362 H 0.47343 0.51291 0.09790
 H363 H 0.46554 0.53754 0.04274
 H364 H 0.45020 0.55227 0.05665
 N365 N 0.53183 -0.07598 0.02948
 N366 N 0.54558 -0.07080 0.01927
 C367 C 0.54748 -0.08265 0.00543
 C368 C 0.53419 -0.09588 0.00709
 C369 C 0.52451 -0.09126 0.02248
 H370 H 0.55774 -0.08178 -0.00506
 H371 H 0.51300 -0.09849 0.02814
 Cu372 Cu 0.55977 -0.04916 0.02500
 Cu373 Cu 0.52431 -0.06251 0.05091
 Cu374 Cu 0.55011 -0.02484 0.06262
 N375 N 0.57457 -0.02848 0.03248
 N376 N 0.57080 -0.01908 0.04719
 C377 C 0.58320 -0.00569 0.04914
 C378 C 0.59537 -0.00680 0.03489
 C379 C 0.58953 -0.02140 0.02458
 H380 H 0.58339 0.00410 0.06010
 H381 H 0.59578 -0.02647 0.01230
 N382 N 0.52865 -0.03277 0.07654
 N383 N 0.51880 -0.04714 0.07210
 C384 C 0.50504 -0.04891 0.08408
 C385 C 0.50634 -0.03498 0.09660
 C386 C 0.52143 -0.02502 0.09146
 H387 H 0.49479 -0.05948 0.08373
 H388 H 0.52668 -0.01299 0.09811
 H389 H 0.53444 -0.03748 0.04303
 H390 H 0.55007 -0.05239 0.05647
 N391 N 1.03151 0.42413 0.52885
 N392 N 1.04547 0.42914 0.51885
 C393 C 1.04738 0.41730 0.50499
 C394 C 1.03388 0.40427 0.50644
 C395 C 1.02406 0.40899 0.52171
 H396 H 1.05780 0.41804 0.49464
 H397 H 1.01238 0.40190 0.52722
 Cu398 Cu 1.05982 0.45057 0.52495
 Cu399 Cu 1.02398 0.43755 0.55034
 Cu400 Cu 1.04982 0.47526 0.56211
 N401 N 1.07444 0.47150 0.53208
 N402 N 1.07049 0.48108 0.54663
 C403 C 1.08275 0.49460 0.54847
 C404 C 1.09503 0.49339 0.53432
 C405 C 1.08939 0.47860 0.52418
 H406 H 1.08281 0.50452 0.55932
 H407 H 1.09579 0.47340 0.51202
 N408 N 1.02838 0.46724 0.57607
 N409 N 1.01852 0.45288 0.57160
 C410 C 1.00485 0.45102 0.58366
 C411 C 1.00620 0.46486 0.59627
 C412 C 1.02124 0.47488 0.59109
 H413 H 0.99462 0.44041 0.58333
 H414 H 1.02654 0.48686 0.59780
 H415 H 1.03426 0.46251 0.54245
 H416 H 1.04958 0.44767 0.55628
 C417 C 0.35458 -0.01627 0.25367
 C418 C 0.36416 -0.00017 0.25006
 C419 C 0.35468 0.01601 0.24656
 C420 C 0.33554 0.01625 0.24661
 C421 C 0.32607 -0.00002 0.25021
 C422 C 0.33543 -0.01636 0.25378
 C423 C 0.38420 -0.00021 0.25010
 C424 C 0.39378 -0.00409 0.23413
 C425 C 0.41292 -0.00412 0.23402
 C426 C 0.42229 -0.00017 0.25021
 C427 C 0.41283 0.00376 0.26634
 C428 C 0.39369 0.00370 0.26612
 H429 H 0.36212 -0.02866 0.25642
 H430 H 0.36230 0.02835 0.24383
 H431 H 0.38623 -0.00706 0.22184
 H432 H 0.38607 0.00667 0.27836
 H433 H 0.31132 0.00003 0.25025
 H434 H 0.43704 -0.00015 0.25025
 C435 C 0.14539 -0.01631 0.74605
 C436 C 0.13585 -0.00020 0.74969
 C437 C 0.14537 0.01593 0.75332
 C438 C 0.16452 0.01610 0.75338
 C439 C 0.17394 -0.00017 0.74970
 C440 C 0.16454 -0.01645 0.74600
 C441 C 0.11581 -0.00020 0.74971
 C442 C 0.10630 -0.00407 0.76573
 C443 C 0.08716 -0.00400 0.76594
 C444 C 0.07772 -0.00001 0.74981
 C445 C 0.08711 0.00391 0.73364
 C446 C 0.10625 0.00377 0.73375
 H447 H 0.13782 -0.02867 0.74326
 H448 H 0.13779 0.02828 0.75610
 H449 H 0.11390 -0.00708 0.77797
 H450 H 0.11381 0.00675 0.72147
 H451 H 0.18869 -0.00016 0.74971
 H452 H 0.06297 0.00007 0.74985
 C453 C 0.64511 0.48361 0.24651
 C454 C 0.63558 0.49974 0.25013
 C455 C 0.64514 0.51586 0.25376
 C456 C 0.66428 0.51601 0.25382
 C457 C 0.67368 0.49972 0.25013
 C458 C 0.66425 0.48344 0.24646
 C459 C 0.61555 0.49975 0.25013
 C460 C 0.60602 0.49564 0.26608
 C461 C 0.58687 0.49558 0.26624
 C462 C 0.57745 0.49971 0.25013
 C463 C 0.58686 0.50385 0.23402
 C464 C 0.60601 0.50384 0.23418
 H465 H 0.63752 0.47126 0.24373
 H466 H 0.63757 0.52822 0.25654
 H467 H 0.61360 0.49250 0.27830
 H468 H 0.61358 0.50697 0.22195
 H469 H 0.68843 0.49971 0.25014
 H470 H 0.56271 0.49970 0.25013
 C471 C 0.85473 0.48372 0.75356
 C472 C 0.86428 0.49983 0.74989
 C473 C 0.85476 0.51595 0.74623
 C474 C 0.83562 0.51612 0.74618
 C475 C 0.82619 0.49986 0.74990
 C476 C 0.83558 0.48358 0.75362
 C477 C 0.88432 0.49982 0.74993
 C478 C 0.89389 0.49578 0.73398
 C479 C 0.91303 0.49574 0.73386
 C480 C 0.92242 0.49981 0.75001
 C481 C 0.91297 0.50388 0.76612
 C482 C 0.89383 0.50386 0.76591
 H483 H 0.86229 0.47136 0.75638
 H484 H 0.86235 0.52829 0.74342
 H485 H 0.88633 0.49269 0.72173
 H486 H 0.88623 0.50695 0.77813
 H487 H 0.81144 0.49987 0.74991
 H488 H 0.93717 0.49980 0.75004
 C489 C 0.25387 0.35581 -0.01618
 C490 C 0.24987 0.36529 -0.00017
 C491 C 0.24586 0.35569 0.01577
 C492 C 0.24581 0.33654 0.01585
 C493 C 0.24988 0.32720 -0.00031
 C494 C 0.25392 0.33667 -0.01640
 C495 C 0.24988 0.38533 -0.00010
 C496 C 0.23380 0.39489 -0.00388
 C497 C 0.23366 0.41403 -0.00389
 C498 C 0.24991 0.42342 -0.00002
 C499 C 0.26615 0.41399 0.00379
 C500 C 0.26598 0.39485 0.00371
 H501 H 0.25693 0.36343 -0.02840
 H502 H 0.24279 0.36321 0.02804
 H503 H 0.22146 0.38733 -0.00682
 H504 H 0.27830 0.38726 0.00659
 H505 H 0.24990 0.31245 -0.00036
 H506 H 0.24993 0.43817 0.00001
 C507 C 0.74625 0.14397 -0.01597
 C508 C 0.75020 0.13450 0.00006
 C509 C 0.75417 0.14411 0.01600
 C510 C 0.75423 0.16325 0.01608
 C511 C 0.75024 0.17259 -0.00010
 C512 C 0.74623 0.16312 -0.01621
 C513 C 0.75021 0.11447 0.00015
 C514 C 0.76628 0.10493 -0.00369
 C515 C 0.76646 0.08578 -0.00362
 C516 C 0.75025 0.07637 0.00038
 C517 C 0.73401 0.08579 0.00425
 C518 C 0.73415 0.10493 0.00411
 H519 H 0.74322 0.13635 -0.02819
 H520 H 0.75720 0.13658 0.02829
 H521 H 0.77858 0.11250 -0.00673
 H522 H 0.72184 0.11251 0.00705
 H523 H 0.75025 0.18734 -0.00016
 H524 H 0.75027 0.06163 0.00048
 C525 C 0.24637 0.64404 0.48397
 C526 C 0.25012 0.63448 0.49999
 C527 C 0.25383 0.64399 0.51605
 C528 C 0.25386 0.66314 0.51625
 C529 C 0.25006 0.67257 0.50007
 C530 C 0.24628 0.66319 0.48385
 C531 C 0.25011 0.61444 0.49996
 C532 C 0.26617 0.60490 0.49603
 C533 C 0.26633 0.58575 0.49603
 C534 C 0.25011 0.57634 0.49999
 C535 C 0.23389 0.58575 0.50393
 C536 C 0.23406 0.60490 0.50390
 H537 H 0.24351 0.63649 0.47166
 H538 H 0.25669 0.63640 0.52833
 H539 H 0.27847 0.61247 0.49302
 H540 H 0.22176 0.61247 0.50691
 H541 H 0.25004 0.68732 0.50010
 H542 H 0.25011 0.56159 0.50001
 C543 C 0.75371 0.85616 0.48412
 C544 C 0.74990 0.86565 0.50017
 C545 C 0.74615 0.85606 0.51617
 C546 C 0.74616 0.83692 0.51629
 C547 C 0.75002 0.82755 0.50008
 C548 C 0.75382 0.83702 0.48391
 C549 C 0.74989 0.88568 0.50024
 C550 C 0.73382 0.89524 0.49642
 C551 C 0.73368 0.91438 0.49643
 C552 C 0.74991 0.92377 0.50035
 C553 C 0.76614 0.91435 0.50419
 C554 C 0.76597 0.89521 0.50411
 H555 H 0.75660 0.86378 0.47186
 H556 H 0.74324 0.86360 0.52848
 H557 H 0.72149 0.88769 0.49346
 H558 H 0.77829 0.88762 0.50703
 H559 H 0.75007 0.81281 0.50005
 H560 H 0.74993 0.93852 0.50039
 C561 C -0.01629 0.25371 0.35515
 C562 C -0.00023 0.25009 0.36474
 C563 C 0.01597 0.24649 0.35536
 C564 C 0.01626 0.24645 0.33630
 C565 C 0.00004 0.25016 0.32681
 C566 C -0.01632 0.25382 0.33608
 C567 C -0.00034 0.25012 0.38469
 C568 C -0.00436 0.23409 0.39419
 C569 C -0.00437 0.23395 0.41325
 C570 C -0.00033 0.25016 0.42261
 C571 C 0.00369 0.26635 0.41323
 C572 C 0.00366 0.26617 0.39417
 H573 H -0.02870 0.25646 0.36262
 H574 H 0.02828 0.24371 0.36299
 H575 H -0.00742 0.22179 0.38665
 H576 H 0.00673 0.27845 0.38661
 H577 H 0.00014 0.25021 0.31213
 H578 H -0.00030 0.25017 0.43730
 C579 C -0.01585 0.74631 0.14463
 C580 C 0.00021 0.75022 0.13512
 C581 C 0.01628 0.75414 0.14461
 C582 C 0.01646 0.75420 0.16367
 C583 C 0.00024 0.75025 0.17305
 C584 C -0.01599 0.74628 0.16369
 C585 C 0.00022 0.75017 0.11517
 C586 C -0.00374 0.76621 0.10564
 C587 C -0.00375 0.76633 0.08657
 C588 C 0.00028 0.75011 0.07724
 C589 C 0.00427 0.73392 0.08664
 C590 C 0.00420 0.73411 0.10571
 H591 H -0.02816 0.74330 0.13709
 H592 H 0.02859 0.75713 0.13705
 H593 H -0.00679 0.77852 0.11316
 H594 H 0.00723 0.72182 0.11328
 H595 H 0.00025 0.75026 0.18774
 H596 H 0.00031 0.75008 0.06256
 C597 C 0.48390 0.24604 0.64502
 C598 C 0.49997 0.24990 0.63552
 C599 C 0.51605 0.25378 0.64502
 C600 C 0.51621 0.25383 0.66408
 C601 C 0.49999 0.24990 0.67345
 C602 C 0.48375 0.24599 0.66409
 C603 C 0.49994 0.24993 0.61557
 C604 C 0.49595 0.26599 0.60610
 C605 C 0.49586 0.26616 0.58704
 C606 C 0.49982 0.24997 0.57764
 C607 C 0.50386 0.23375 0.58697
 C608 C 0.50387 0.23388 0.60604
 H609 H 0.47157 0.24308 0.63748
 H610 H 0.52836 0.25676 0.63747
 H611 H 0.49294 0.27828 0.61366
 H612 H 0.50692 0.22157 0.61355
 H613 H 0.49999 0.24990 0.68814
 H614 H 0.49976 0.24998 0.56295
 C615 C 0.48368 0.75404 0.85574
 C616 C 0.49976 0.75015 0.86522
 C617 C 0.51583 0.74631 0.85571
 C618 C 0.51597 0.74631 0.83664
 C619 C 0.49974 0.75026 0.82729
 C620 C 0.48351 0.75414 0.83668
 C621 C 0.49980 0.75011 0.88517
 C622 C 0.49585 0.73405 0.89464
 C623 C 0.49591 0.73385 0.91371
 C624 C 0.50000 0.75003 0.92310
 C625 C 0.50397 0.76626 0.91374
 C626 C 0.50385 0.76613 0.89468
 H627 H 0.47136 0.75699 0.86330
 H628 H 0.52815 0.74332 0.86324
 H629 H 0.49275 0.72178 0.88708
 H630 H 0.50688 0.77844 0.88714
 H631 H 0.49974 0.75031 0.81260
 H632 H 0.50009 0.75000 0.93778
 N633 N 0.11447 0.23780 0.26447
 C634 C 0.10993 0.22563 0.27755
 N635 N 0.12004 0.21029 0.27949
 N636 N 0.13427 0.20722 0.26867
 C637 C 0.13882 0.21938 0.25553
 N638 N 0.12868 0.23473 0.25365
 C639 C 0.09425 0.22877 0.28873
 C640 C 0.08079 0.23164 0.29765
 C641 C 0.06442 0.23529 0.30765
 N642 N 0.06445 0.23549 0.32604
 N643 N 0.04917 0.23903 0.33517
 C644 C 0.03333 0.24253 0.32624
 N645 N 0.03345 0.24231 0.30780
 N646 N 0.04869 0.23877 0.29868
 N647 N 0.62023 0.71094 0.78010
 C648 C 0.60908 0.72535 0.77706
 N649 N 0.61258 0.73659 0.76290
 N650 N 0.62680 0.73355 0.75210
 C651 C 0.63800 0.71914 0.75509
 N652 N 0.63448 0.70790 0.76930
 C653 C 0.59346 0.72847 0.78835
 C654 C 0.58008 0.73133 0.79738
 C655 C 0.56380 0.73496 0.80754
 N656 N 0.54801 0.73852 0.79872
 N657 N 0.53287 0.74209 0.80799
 C658 C 0.53292 0.74225 0.82643
 N659 N 0.54882 0.73865 0.83521
 N660 N 0.56400 0.73508 0.82593
 N661 N 0.38681 0.76370 0.76300
 C662 C 0.39032 0.77498 0.77714
 N663 N 0.37916 0.78939 0.78016
 N664 N 0.36490 0.79240 0.76935
 C665 C 0.36137 0.78112 0.75516
 N666 N 0.37257 0.76671 0.75220
 C667 C 0.40595 0.77189 0.78842
 C668 C 0.41934 0.76908 0.79746
 C669 C 0.43564 0.76549 0.80761
 N670 N 0.43548 0.76543 0.82601
 N671 N 0.45067 0.76187 0.83528
 C672 C 0.46655 0.75823 0.82649
 N673 N 0.46657 0.75834 0.80805
 N674 N 0.45141 0.76189 0.79878
 N675 N -0.11280 0.26359 0.26205
 C676 C -0.10948 0.27459 0.27644
 N677 N -0.12088 0.28873 0.27979
 N678 N -0.13518 0.29176 0.26905
 C679 C -0.13854 0.28077 0.25459
 N680 N -0.12708 0.26662 0.25132
 C681 C -0.09382 0.27145 0.28768
 C682 C -0.08042 0.26858 0.29669
 C683 C -0.06415 0.26494 0.30685
 N684 N -0.06435 0.26492 0.32525
 N685 N -0.04917 0.26139 0.33456
 C686 C -0.03327 0.25774 0.32581
 N687 N -0.03321 0.25778 0.30737
 N688 N -0.04835 0.26130 0.29807
 N689 N -0.12056 0.71111 0.21992
 C690 C -0.10923 0.72534 0.22314
 N691 N -0.11264 0.73649 0.23741
 N692 N -0.12694 0.73352 0.24813
 C693 C -0.13831 0.71928 0.24497
 N694 N -0.13488 0.70813 0.23065
 C695 C -0.09355 0.72841 0.21192
 C696 C -0.08012 0.73121 0.20292
 C697 C -0.06383 0.73481 0.19278
 N698 N -0.04806 0.73848 0.20161
 N699 N -0.03291 0.74208 0.19235
 C700 C -0.03294 0.74216 0.17390
 N701 N -0.04881 0.73845 0.16512
 N702 N -0.06399 0.73485 0.17439
 N703 N 0.38716 0.23626 0.73790
 C704 C 0.39052 0.22520 0.72357
 N705 N 0.37915 0.21102 0.72027
 N706 N 0.36483 0.20801 0.73100
 C707 C 0.36144 0.21907 0.74540
 N708 N 0.37287 0.23327 0.74862
 C709 C 0.40618 0.22829 0.71233
 C710 C 0.41959 0.23111 0.70333
 C711 C 0.43589 0.23470 0.69318
 N712 N 0.43570 0.23482 0.67479
 N713 N 0.45089 0.23837 0.66551
 C714 C 0.46679 0.24193 0.67429
 N715 N 0.46684 0.24177 0.69273
 N716 N 0.45168 0.23822 0.70200
 N717 N 0.61296 0.26333 0.73781
 C718 C 0.60945 0.27458 0.72365
 N719 N 0.62067 0.28893 0.72056
 N720 N 0.63496 0.29193 0.73132
 C721 C 0.63850 0.28070 0.74555
 N722 N 0.62723 0.26633 0.74856
 C723 C 0.59379 0.27150 0.71240
 C724 C 0.58037 0.26871 0.70338
 C725 C 0.56407 0.26515 0.69322
 N726 N 0.54830 0.26151 0.70202
 N727 N 0.53314 0.25797 0.69274
 C728 C 0.53317 0.25791 0.67430
 N729 N 0.54905 0.26159 0.66553
 N730 N 0.56424 0.26514 0.67482
 N731 N 0.11310 0.76391 0.23737
 C732 C 0.10966 0.77512 0.22316
 N733 N 0.12090 0.78945 0.22006
 N734 N 0.13517 0.79245 0.23085
 C735 C 0.13863 0.78124 0.24511
 N736 N 0.12735 0.76691 0.24815
 C737 C 0.09404 0.77201 0.21187
 C738 C 0.08065 0.76918 0.20283
 C739 C 0.06435 0.76557 0.19270
 N740 N 0.04857 0.76204 0.20154
 N741 N 0.03340 0.75848 0.19229
 C742 C 0.03342 0.75829 0.17385
 N743 N 0.04932 0.76185 0.16504
 N744 N 0.06452 0.76541 0.17430
 N745 N 0.28086 0.12200 0.21323
 C746 C 0.27644 0.11002 0.22653
 N747 N 0.26109 0.11279 0.23637
 N748 N 0.25046 0.12711 0.23303
 C749 C 0.25482 0.13913 0.21972
 N750 N 0.27022 0.13632 0.20989
 C751 C 0.28757 0.09431 0.22990
 C752 C 0.29651 0.08085 0.23281
 C753 C 0.30659 0.06448 0.23636
 N754 N 0.29764 0.04871 0.23972
 N755 N 0.30686 0.03344 0.24297
 C756 C 0.32538 0.03334 0.24298
 N757 N 0.33429 0.04923 0.23961
 N758 N 0.32506 0.06454 0.23636
 N759 N 0.76173 0.61313 0.73648
 C760 C 0.77626 0.60964 0.72568
 N761 N 0.77984 0.62093 0.71157
 N762 N 0.76920 0.63530 0.70837
 C763 C 0.75462 0.63881 0.71917
 N764 N 0.75109 0.62748 0.73329
 C765 C 0.78739 0.59391 0.72893
 C766 C 0.79636 0.58045 0.73178
 C767 C 0.80650 0.56413 0.73533
 N768 N 0.82497 0.56425 0.73536
 N769 N 0.83425 0.54902 0.73879
 C770 C 0.82540 0.53313 0.74231
 N771 N 0.80688 0.53315 0.74224
 N772 N 0.79760 0.54835 0.73882
 N773 N 0.77963 0.37887 0.78831
 C774 C 0.77608 0.39014 0.77417
 N775 N 0.76157 0.38662 0.76333
 N776 N 0.75094 0.37226 0.76651
 C777 C 0.75444 0.36096 0.78067
 N778 N 0.76899 0.36450 0.79149
 C779 C 0.78721 0.40587 0.77093
 C780 C 0.79620 0.41932 0.76808
 C781 C 0.80637 0.43563 0.76453
 N782 N 0.79751 0.45144 0.76108
 N783 N 0.80681 0.46662 0.75764
 C784 C 0.82533 0.46659 0.75752
 N785 N 0.83415 0.45068 0.76101
 N786 N 0.82484 0.43547 0.76445
 N787 N 0.27927 -0.12069 0.28911
 C788 C 0.27596 -0.10976 0.27465
 N789 N 0.26183 -0.11372 0.26348
 N790 N 0.25133 -0.12818 0.26665
 C791 C 0.25458 -0.13917 0.28111
 N792 N 0.26876 -0.13516 0.29228
 C793 C 0.28702 -0.09398 0.27134
 C794 C 0.29597 -0.08053 0.26841
 C795 C 0.30615 -0.06425 0.26476
 N796 N 0.29731 -0.04846 0.26121
 N797 N 0.30663 -0.03330 0.25773
 C798 C 0.32515 -0.03334 0.25766
 N799 N 0.33395 -0.04924 0.26123
 N800 N 0.32462 -0.06443 0.26471
 N801 N 0.23843 -0.11347 0.73619
 C802 C 0.22394 -0.10993 0.72535
 N803 N 0.22035 -0.12121 0.71123
 N804 N 0.23095 -0.13560 0.70805
 C805 C 0.24551 -0.13919 0.71887
 N806 N 0.24903 -0.12785 0.73301
 C807 C 0.21284 -0.09417 0.72861
 C808 C 0.20388 -0.08072 0.73148
 C809 C 0.19372 -0.06441 0.73507
 N810 N 0.17525 -0.06455 0.73508
 N811 N 0.16595 -0.04934 0.73854
 C812 C 0.17478 -0.03345 0.74211
 N813 N 0.19330 -0.03344 0.74206
 N814 N 0.20260 -0.04863 0.73861
 N815 N 0.72034 0.37885 0.21173
 C816 C 0.72373 0.39000 0.22601
 N817 N 0.73812 0.38639 0.23697
 N818 N 0.74878 0.37206 0.23378
 C819 C 0.74544 0.36087 0.21950
 N820 N 0.73101 0.36451 0.20854
 C821 C 0.71256 0.40570 0.22927
 C822 C 0.70356 0.41913 0.23212
 C823 C 0.69340 0.43544 0.23566
 N824 N 0.70228 0.45126 0.23903
 N825 N 0.69300 0.46645 0.24243
 C826 C 0.67448 0.46643 0.24261
 N827 N 0.66563 0.45051 0.23920
 N828 N 0.67493 0.43528 0.23580
 N829 N 0.72012 0.62073 0.28869
 C830 C 0.72365 0.60954 0.27448
 N831 N 0.73807 0.61318 0.26358
 N832 N 0.74865 0.62757 0.26678
 C833 C 0.74518 0.63880 0.28100
 N834 N 0.73071 0.63513 0.29189
 C835 C 0.71256 0.59377 0.27120
 C836 C 0.70362 0.58030 0.26832
 C837 C 0.69347 0.56398 0.26473
 N838 N 0.70234 0.54821 0.26115
 N839 N 0.69305 0.53302 0.25771
 C840 C 0.67453 0.53301 0.25769
 N841 N 0.66570 0.54889 0.26130
 N842 N 0.67500 0.56410 0.26475
 N843 N 0.23827 0.11327 0.76298
 C844 C 0.22384 0.10967 0.77388
 N845 N 0.22033 0.12089 0.78808
 N846 N 0.23095 0.13527 0.79126
 C847 C 0.24543 0.13889 0.78037
 N848 N 0.24889 0.12764 0.76616
 C849 C 0.21272 0.09393 0.77063
 C850 C 0.20376 0.08046 0.76778
 C851 C 0.19363 0.06413 0.76423
 N852 N 0.17515 0.06426 0.76414
 N853 N 0.16587 0.04902 0.76072
 C854 C 0.17473 0.03312 0.75725
 N855 N 0.19325 0.03313 0.75739
 N856 N 0.20252 0.04834 0.76081
 N857 N 0.23564 0.26251 0.11221
 C858 C 0.22458 0.27686 0.10866
 N859 N 0.21042 0.28036 0.11995
 N860 N 0.20742 0.26980 0.13437
 C861 C 0.21848 0.25540 0.13794
 N862 N 0.23265 0.25197 0.12661
 C863 C 0.22770 0.28796 0.09293
 C864 C 0.23053 0.29694 0.07953
 C865 C 0.23415 0.30715 0.06333
 N866 N 0.23429 0.32562 0.06357
 N867 N 0.23793 0.33499 0.04851
 C868 C 0.24160 0.32623 0.03266
 N869 N 0.24141 0.30771 0.03255
 N870 N 0.23776 0.29835 0.04759
 N871 N 0.73627 0.76316 0.61295
 C872 C 0.72518 0.77746 0.60930
 N873 N 0.71084 0.78082 0.62041
 N874 N 0.70769 0.77019 0.63473
 C875 C 0.71877 0.75583 0.63839
 N876 N 0.73313 0.75253 0.62725
 C877 C 0.72842 0.78859 0.59362
 C878 C 0.73132 0.79755 0.58022
 C879 C 0.73497 0.80770 0.56398
 N880 N 0.73502 0.82617 0.56414
 N881 N 0.73856 0.83547 0.54901
 C882 C 0.74218 0.82665 0.53318
 N883 N 0.74209 0.80813 0.53316
 N884 N 0.73855 0.79883 0.54827
 N885 N 0.78914 0.78100 0.37965
 C886 C 0.77475 0.77777 0.39073
 N887 N 0.76359 0.76350 0.38710
 N888 N 0.76671 0.75280 0.37284
 C889 C 0.78111 0.75598 0.36173
 N890 N 0.79226 0.77030 0.36537
 C891 C 0.77155 0.78895 0.40638
 C892 C 0.76868 0.79792 0.41979
 C893 C 0.76506 0.80802 0.43607
 N894 N 0.76493 0.82650 0.43599
 N895 N 0.76139 0.83573 0.45116
 C896 C 0.75784 0.82684 0.46696
 N897 N 0.75801 0.80832 0.46691
 N898 N 0.76155 0.79909 0.45177
 N899 N 0.28954 0.28067 -0.12053
 C900 C 0.27519 0.27736 -0.10942
 N901 N 0.26405 0.26309 -0.11304
 N902 N 0.26714 0.25245 -0.12735
 C903 C 0.28149 0.25570 -0.13850
 N904 N 0.29263 0.27002 -0.13485
 C905 C 0.27201 0.28852 -0.09375
 C906 C 0.26913 0.29749 -0.08036
 C907 C 0.26548 0.30762 -0.06411
 N908 N 0.26180 0.29871 -0.04845
 N909 N 0.25818 0.30796 -0.03334
 C910 C 0.25810 0.32648 -0.03330
 N911 N 0.26183 0.33535 -0.04907
 N912 N 0.26545 0.32609 -0.06421
 N913 N 0.71067 0.21900 -0.12043
 C914 C 0.72501 0.22236 -0.10931
 N915 N 0.73608 0.23669 -0.11291
 N916 N 0.73293 0.24734 -0.12720
 C917 C 0.71859 0.24404 -0.13837
 N918 N 0.70753 0.22966 -0.13474
 C919 C 0.72825 0.21120 -0.09365
 C920 C 0.73115 0.20223 -0.08025
 C921 C 0.73481 0.19212 -0.06398
 N922 N 0.73848 0.20105 -0.04832
 N923 N 0.74206 0.19181 -0.03320
 C924 C 0.74212 0.17329 -0.03314
 N925 N 0.73842 0.16440 -0.04890
 N926 N 0.73483 0.17365 -0.06406
 N927 N 0.23654 0.73719 0.38741
 C928 C 0.22541 0.72289 0.39096
 N929 N 0.21111 0.71958 0.37978
 N930 N 0.20806 0.73025 0.36546
 C931 C 0.21919 0.74460 0.36188
 N932 N 0.23349 0.74786 0.37311
 C933 C 0.22857 0.71169 0.40661
 C934 C 0.23142 0.70267 0.41998
 C935 C 0.23503 0.69247 0.43620
 N936 N 0.23520 0.67400 0.43599
 N937 N 0.23874 0.66466 0.45110
 C938 C 0.24227 0.67346 0.46696
 N939 N 0.24207 0.69198 0.46704
 N940 N 0.23852 0.70130 0.45195
 N941 N 0.26322 0.73686 0.61301
 C942 C 0.27435 0.72257 0.60942
 N943 N 0.28869 0.71928 0.62056
 N944 N 0.29178 0.72997 0.63486
 C945 C 0.28066 0.74431 0.63847
 N946 N 0.26631 0.74754 0.62729
 C947 C 0.27118 0.71139 0.59375
 C948 C 0.26835 0.70240 0.58035
 C949 C 0.26481 0.69225 0.56408
 N950 N 0.26476 0.67378 0.56420
 N951 N 0.26131 0.66450 0.54903
 C952 C 0.25778 0.67335 0.53320
 N953 N 0.25786 0.69187 0.53322
 N954 N 0.26130 0.70114 0.54836
 N955 N 0.76445 0.23715 0.11255
 C956 C 0.77560 0.22291 0.10888
 N957 N 0.78995 0.21958 0.11999
 N958 N 0.79302 0.23018 0.13436
 C959 C 0.78186 0.24447 0.13806
 N960 N 0.76752 0.24775 0.12690
 C961 C 0.77240 0.21177 0.09320
 C962 C 0.76951 0.20278 0.07982
 C963 C 0.76583 0.19258 0.06362
 N964 N 0.76571 0.17411 0.06384
 N965 N 0.76206 0.16476 0.04875
 C966 C 0.75840 0.17355 0.03292
 N967 N 0.75858 0.19206 0.03283
 N968 N 0.76222 0.20140 0.04789
 N969 N 0.48607 0.36232 0.51290
 C970 C 0.47519 0.35928 0.52745
 N971 N 0.46126 0.37091 0.53088
 N972 N 0.45832 0.38518 0.52008
 C973 C 0.46920 0.38824 0.50548
 N974 N 0.48313 0.37657 0.50211
 C975 C 0.47821 0.34368 0.53877
 C976 C 0.48098 0.33029 0.54782
 C977 C 0.48452 0.31401 0.55797
 N978 N 0.48471 0.31421 0.57637
 N979 N 0.48825 0.29902 0.58564
 C980 C 0.49174 0.28311 0.57685
 N981 N 0.49150 0.28305 0.55842
 N982 N 0.48796 0.29820 0.54915
 N983 N -0.01333 0.86279 0.01266
 C984 C -0.02457 0.85934 0.02683
 N985 N -0.03891 0.87058 0.02991
 N986 N -0.04189 0.88484 0.01912
 C987 C -0.03065 0.88831 0.00489
 N988 N -0.01631 0.87704 0.00188
 C989 C -0.02151 0.84372 0.03812
 C990 C -0.01872 0.83033 0.04717
 C991 C -0.01516 0.81407 0.05736
 N992 N -0.01506 0.81430 0.07575
 N993 N -0.01149 0.79915 0.08507
 C994 C -0.00787 0.78324 0.07633
 N995 N -0.00801 0.78314 0.05789
 N996 N -0.01158 0.79827 0.04858
 N997 N 0.03931 0.62951 0.03010
 C998 C 0.02494 0.64072 0.02711
 N999 N 0.01364 0.63729 0.01297
 N1000 N 0.01660 0.62307 0.00214
 C1001 C 0.03098 0.61181 0.00506
 N1002 N 0.04227 0.61527 0.01926
 C1003 C 0.02192 0.65634 0.03842
 C1004 C 0.01917 0.66974 0.04746
 C1005 C 0.01564 0.68604 0.05760
 N1006 N 0.01211 0.70183 0.04877
 N1007 N 0.00856 0.71699 0.05803
 C1008 C 0.00840 0.71696 0.07647
 N1009 N 0.01198 0.70107 0.08527
 N1010 N 0.01553 0.68588 0.07600
 N1011 N 0.51379 0.13764 0.51267
 C1012 C 0.52476 0.14081 0.52713
 N1013 N 0.53885 0.12934 0.53044
 N1014 N 0.54186 0.11511 0.51962
 C1015 C 0.53089 0.11191 0.50511
 N1016 N 0.51679 0.12342 0.50186
 C1017 C 0.52169 0.15642 0.53844
 C1018 C 0.51889 0.16979 0.54751
 C1019 C 0.51530 0.18604 0.55772
 N1020 N 0.51534 0.18582 0.57611
 N1021 N 0.51176 0.20096 0.58545
 C1022 C 0.50798 0.21685 0.57672
 N1023 N 0.50798 0.21692 0.55828
 N1024 N 0.51156 0.20181 0.54895
 N1025 N -0.03901 0.12923 0.46945
 C1026 C -0.02500 0.14080 0.47281
 N1027 N -0.01402 0.13766 0.48726
 N1028 N -0.01693 0.12339 0.49803
 C1029 C -0.03094 0.11178 0.49472
 N1030 N -0.04193 0.11494 0.48022
 C1031 C -0.02199 0.15642 0.46152
 C1032 C -0.01923 0.16982 0.45249
 C1033 C -0.01569 0.18611 0.44234
 N1034 N -0.01212 0.20189 0.45116
 N1035 N -0.00858 0.21705 0.44190
 C1036 C -0.00847 0.21701 0.42346
 N1037 N -0.01208 0.20112 0.41467
 N1038 N -0.01562 0.18593 0.42395
 N1039 N 0.48586 0.63750 0.98757
 C1040 C 0.47501 0.64055 0.97300
 N1041 N 0.46114 0.62887 0.96948
 N1042 N 0.45823 0.61454 0.98022
 C1043 C 0.46908 0.61147 0.99484
 N1044 N 0.48295 0.62319 0.99830
 C1045 C 0.47802 0.65622 0.96176
 C1046 C 0.48080 0.66965 0.95277
 C1047 C 0.48441 0.68597 0.94267
 N1048 N 0.48797 0.70173 0.95154
 N1049 N 0.49157 0.71690 0.94231
 C1050 C 0.49177 0.71689 0.92387
 N1051 N 0.48818 0.70102 0.91504
 N1052 N 0.48457 0.68582 0.92427
 N1053 N 0.53881 0.87111 0.96970
 C1054 C 0.52494 0.85943 0.97322
 N1055 N 0.51414 0.86245 0.98782
 N1056 N 0.51708 0.87673 0.99858
 C1057 C 0.53095 0.88846 0.99511
 N1058 N 0.54176 0.88541 0.98046
 C1059 C 0.52189 0.84379 0.96194
 C1060 C 0.51909 0.83039 0.95292
 C1061 C 0.51549 0.81409 0.94279
 N1062 N 0.51184 0.79833 0.95163
 N1063 N 0.50825 0.78318 0.94238
 C1064 C 0.50814 0.78319 0.92394
 N1065 N 0.51182 0.79906 0.91514
 N1066 N 0.51543 0.81424 0.92440
 N1067 N 0.03859 0.37121 0.46911
 C1068 C 0.02465 0.35959 0.47256
 N1069 N 0.01376 0.36268 0.48708
 N1070 N 0.01669 0.37697 0.49784
 C1071 C 0.03063 0.38863 0.49444
 N1072 N 0.04153 0.38551 0.47987
 C1073 C 0.02163 0.34394 0.46130
 C1074 C 0.01883 0.33052 0.45230
 C1075 C 0.01523 0.31421 0.44220
 N1076 N 0.01509 0.31436 0.42380
 N1077 N 0.01147 0.29916 0.41457
 C1078 C 0.00786 0.28330 0.42339
 N1079 N 0.00805 0.28329 0.44183
 N1080 N 0.01166 0.29846 0.45106
 N1081 N 0.37078 0.52953 0.46095
 C1082 C 0.35987 0.52642 0.47547
 N1083 N 0.36383 0.51243 0.48681
 N1084 N 0.37825 0.50186 0.48373
 C1085 C 0.38920 0.50492 0.46920
 N1086 N 0.38522 0.51896 0.45787
 C1087 C 0.34408 0.53750 0.47863
 C1088 C 0.33060 0.54644 0.48143
 C1089 C 0.31427 0.55659 0.48495
 N1090 N 0.29849 0.54771 0.48850
 N1091 N 0.28330 0.55700 0.49196
 C1092 C 0.28330 0.57551 0.49201
 N1093 N 0.29919 0.58435 0.48841
 N1094 N 0.31440 0.57506 0.48495
 N1095 N 0.87110 0.02998 -0.03908
 C1096 C 0.85986 0.02648 -0.02490
 N1097 N 0.86345 0.01206 -0.01399
 N1098 N 0.87782 0.00145 -0.01715
 C1099 C 0.88909 0.00489 -0.03135
 N1100 N 0.88549 0.01937 -0.04224
 C1101 C 0.84411 0.03759 -0.02166
 C1102 C 0.83065 0.04654 -0.01875
 C1103 C 0.81434 0.05666 -0.01507
 N1104 N 0.79859 0.04777 -0.01145
 N1105 N 0.78343 0.05704 -0.00784
 C1106 C 0.78342 0.07555 -0.00771
 N1107 N 0.79928 0.08441 -0.01138
 N1108 N 0.81447 0.07513 -0.01499
 N1109 N 0.63649 0.01248 0.01372
 C1110 C 0.64050 0.02646 0.02506
 N1111 N 0.62967 0.02955 0.03964
 N1112 N 0.61524 0.01897 0.04276
 C1113 C 0.61120 0.00495 0.03143
 N1114 N 0.62207 0.00192 0.01684
 C1115 C 0.65628 0.03755 0.02183
 C1116 C 0.66975 0.04650 0.01898
 C1117 C 0.68607 0.05665 0.01542
 N1118 N 0.68594 0.07512 0.01534
 N1119 N 0.70115 0.08441 0.01184
 C1120 C 0.71704 0.07556 0.00830
 N1121 N 0.71704 0.05704 0.00843
 N1122 N 0.70186 0.04776 0.01192
 N1123 N 0.13631 0.51255 0.51334
 C1124 C 0.14030 0.52654 0.52468
 N1125 N 0.12937 0.52970 0.53917
 N1126 N 0.11488 0.51917 0.54222
 C1127 C 0.11087 0.50514 0.53089
 N1128 N 0.12184 0.50204 0.51638
 C1129 C 0.15613 0.53757 0.52153
 C1130 C 0.16963 0.54648 0.51872
 C1131 C 0.18597 0.55661 0.51517
 N1132 N 0.20175 0.54773 0.51167
 N1133 N 0.21693 0.55700 0.50816
 C1134 C 0.21693 0.57552 0.50800
 N1135 N 0.20104 0.58437 0.51155
 N1136 N 0.18583 0.57508 0.51507
 N1137 N 0.13679 0.48805 -0.01387
 C1138 C 0.14029 0.47355 -0.02471
 N1139 N 0.12898 0.47000 -0.03883
 N1140 N 0.11462 0.48064 -0.04200
 C1141 C 0.11110 0.49519 -0.03117
 N1142 N 0.12244 0.49869 -0.01704
 C1143 C 0.15602 0.46241 -0.02147
 C1144 C 0.16946 0.45343 -0.01861
 C1145 C 0.18577 0.44326 -0.01502
 N1146 N 0.18561 0.42479 -0.01503
 N1147 N 0.20081 0.41547 -0.01153
 C1148 C 0.21669 0.42429 -0.00788
 N1149 N 0.21671 0.44281 -0.00791
 N1150 N 0.20154 0.45211 -0.01141
 N1151 N 0.63667 0.98813 0.48628
 C1152 C 0.64047 0.97394 0.47514
 N1153 N 0.62948 0.97068 0.46071
 N1154 N 0.61511 0.98131 0.45753
 C1155 C 0.61128 0.99556 0.46866
 N1156 N 0.62231 0.99876 0.48310
 C1157 C 0.65620 0.96281 0.47841
 C1158 C 0.66963 0.95384 0.48134
 C1159 C 0.68589 0.94365 0.48504
 N1160 N 0.68571 0.92518 0.48502
 N1161 N 0.70087 0.91585 0.48862
 C1162 C 0.71674 0.92465 0.49238
 N1163 N 0.71677 0.94317 0.49237
 N1164 N 0.70164 0.95249 0.48877
 N1165 N 0.87064 0.97048 0.53918
 C1166 C 0.85964 0.97371 0.52475
 N1167 N 0.86347 0.98786 0.51356
 N1168 N 0.87787 0.99845 0.51668
 C1169 C 0.88891 0.99527 0.53112
 N1170 N 0.88504 0.98108 0.54231
 C1171 C 0.84389 0.96261 0.52154
 C1172 C 0.83042 0.95365 0.51871
 C1173 C 0.81410 0.94350 0.51518
 N1174 N 0.79830 0.95238 0.51178
 N1175 N 0.78311 0.94309 0.50834
 C1176 C 0.78313 0.92457 0.50817
 N1177 N 0.79904 0.91573 0.51161
 N1178 N 0.81426 0.92503 0.51505
 N1179 N 0.36367 0.48729 0.01334
 C1180 C 0.35973 0.47323 0.02460
 N1181 N 0.37064 0.47006 0.03911
 N1182 N 0.38506 0.48065 0.04226
 C1183 C 0.38902 0.49475 0.03101
 N1184 N 0.37808 0.49787 0.01648
 C1185 C 0.34395 0.46215 0.02136
 C1186 C 0.33047 0.45322 0.01849
 C1187 C 0.31414 0.44309 0.01489
 N1188 N 0.31427 0.42462 0.01474
 N1189 N 0.29905 0.41535 0.01125
 C1190 C 0.28315 0.42421 0.00777
 N1191 N 0.28316 0.44272 0.00796
 N1192 N 0.29835 0.45199 0.01145
 N1193 N 0.51312 0.48513 0.36255
 C1194 C 0.52742 0.47399 0.35905
 N1195 N 0.53071 0.45973 0.37027
 N1196 N 0.52002 0.45671 0.38457
 C1197 C 0.50567 0.46785 0.38810
 N1198 N 0.50243 0.48212 0.37685
 C1199 C 0.53862 0.47712 0.34341
 C1200 C 0.54761 0.47999 0.33003
 C1201 C 0.55776 0.48368 0.31381
 N1202 N 0.57623 0.48391 0.31398
 N1203 N 0.58551 0.48763 0.29888
 C1204 C 0.57665 0.49128 0.28308
 N1205 N 0.55814 0.49101 0.28304
 N1206 N 0.54886 0.48729 0.29811
 N1207 N 0.01355 -0.01385 0.86260
 C1208 C 0.02790 -0.02490 0.85906
 N1209 N 0.03124 -0.03921 0.87020
 N1210 N 0.02054 -0.04236 0.88447
 C1211 C 0.00613 -0.03131 0.88804
 N1212 N 0.00285 -0.01699 0.87686
 C1213 C 0.03907 -0.02168 0.84341
 C1214 C 0.04803 -0.01880 0.83001
 C1215 C 0.05813 -0.01518 0.81374
 N1216 N 0.07660 -0.01518 0.81383
 N1217 N 0.08585 -0.01166 0.79866
 C1218 C 0.07697 -0.00802 0.78287
 N1219 N 0.05845 -0.00805 0.78293
 N1220 N 0.04921 -0.01156 0.79807
 N1221 N 0.01327 0.01438 0.63729
 C1222 C 0.02756 0.02552 0.64087
 N1223 N 0.03082 0.03987 0.62975
 N1224 N 0.02010 0.04298 0.61548
 C1225 C 0.00576 0.03185 0.61188
 N1226 N 0.00256 0.01748 0.62303
 C1227 C 0.03877 0.02231 0.65649
 C1228 C 0.04776 0.01939 0.66986
 C1229 C 0.05792 0.01567 0.68607
 N1230 N 0.07639 0.01545 0.68588
 N1231 N 0.08569 0.01175 0.70098
 C1232 C 0.07686 0.00812 0.71679
 N1233 N 0.05834 0.00839 0.71685
 N1234 N 0.04905 0.01209 0.70178
 N1235 N 0.51312 0.51408 0.13752
 C1236 C 0.52737 0.52525 0.14114
 N1237 N 0.53061 0.53963 0.13005
 N1238 N 0.51991 0.54273 0.11576
 C1239 C 0.50560 0.53157 0.11212
 N1240 N 0.50242 0.51718 0.12325
 C1241 C 0.53856 0.52206 0.15679
 C1242 C 0.54755 0.51918 0.17017
 C1243 C 0.55770 0.51551 0.18640
 N1244 N 0.57617 0.51546 0.18627
 N1245 N 0.58546 0.51182 0.20138
 C1246 C 0.57662 0.50807 0.21716
 N1247 N 0.55810 0.50817 0.21717
 N1248 N 0.54882 0.51181 0.20208
 N1249 N 0.48689 -0.01404 0.13762
 C1250 C 0.47253 -0.02510 0.14113
 N1251 N 0.46919 -0.03939 0.12995
 N1252 N 0.47991 -0.04252 0.11569
 C1253 C 0.49433 -0.03147 0.11216
 N1254 N 0.49760 -0.01716 0.12337
 C1255 C 0.46134 -0.02191 0.15677
 C1256 C 0.45235 -0.01905 0.17016
 C1257 C 0.44217 -0.01544 0.18639
 N1258 N 0.42370 -0.01533 0.18620
 N1259 N 0.41438 -0.01177 0.20131
 C1260 C 0.42320 -0.00818 0.21715
 N1261 N 0.44172 -0.00834 0.21721
 N1262 N 0.45103 -0.01190 0.20212
 N1263 N 0.96923 0.46020 0.62978
 C1264 C 0.97257 0.47447 0.64099
 N1265 N 0.98689 0.48558 0.63746
 N1266 N 0.99756 0.48253 0.62317
 C1267 C 0.99429 0.46825 0.61192
 N1268 N 0.97991 0.45715 0.61547
 C1269 C 0.96139 0.47762 0.65665
 C1270 C 0.95240 0.48048 0.67003
 C1271 C 0.94224 0.48413 0.68626
 N1272 N 0.92377 0.48426 0.68608
 N1273 N 0.91446 0.48790 0.70119
 C1274 C 0.92329 0.49154 0.71701
 N1275 N 0.94181 0.49136 0.71706
 N1276 N 0.95111 0.48773 0.70197
 N1277 N 0.96894 0.53944 0.87034
 C1278 C 0.97225 0.52513 0.85917
 N1279 N 0.98656 0.51402 0.86272
 N1280 N 0.99725 0.51710 0.87700
 C1281 C 0.99401 0.53142 0.88820
 N1282 N 0.97964 0.54252 0.88463
 C1283 C 0.96107 0.52196 0.84351
 C1284 C 0.95211 0.51910 0.83010
 C1285 C 0.94200 0.51545 0.81384
 N1286 N 0.95092 0.51181 0.79818
 N1287 N 0.94168 0.50819 0.78306
 C1288 C 0.92316 0.50806 0.78301
 N1289 N 0.91427 0.51176 0.79878
 N1290 N 0.92352 0.51538 0.81393
 N1291 N 0.46870 0.03932 0.37055
 C1292 C 0.47198 0.02496 0.35943
 N1293 N 0.48630 0.01387 0.36299
 N1294 N 0.49702 0.01701 0.37723
 C1295 C 0.49380 0.03136 0.38839
 N1296 N 0.47943 0.04246 0.38481
 C1297 C 0.46079 0.02175 0.34381
 C1298 C 0.45183 0.01885 0.33041
 C1299 C 0.44175 0.01519 0.31414
 N1300 N 0.45071 0.01161 0.29848
 N1301 N 0.44150 0.00802 0.28333
 C1302 C 0.42298 0.00786 0.28326
 N1303 N 0.41406 0.01149 0.29903
 N1304 N 0.42328 0.01508 0.31420
   
