data_POSCAR
  _audit_creation_date              2014-09-24
  _audit_creation_method            'ToBaCCo'
  _symmetry_space_group_name_H-M    'P1'
  _symmetry_Int_Tables_number       1
  _symmetry_cell_setting            triclinic
  loop_
  _symmetry_equiv_pos_as_xyz
 x,y,z
_cell_length_a 88.3805
_cell_length_b 89.0820
_cell_length_c 90.8636
_cell_angle_alpha 89.934500
_cell_angle_beta 89.893300
_cell_angle_gamma 90.113400
loop_
  _atom_site_label
  _atom_site_type_symbol
  _atom_site_fract_x
  _atom_site_fract_y
  _atom_site_fract_z
N1 N 0.37264 0.33028 0.34511
 N2 N 0.37255 0.34013 0.33430
 C3 C 0.38348 0.33654 0.32456
 C4 C 0.39074 0.32387 0.32965
 C5 C 0.38362 0.32013 0.34264
 H6 H 0.38570 0.34236 0.31433
 H7 H 0.38590 0.31047 0.34950
 Cu8 Cu 0.35747 0.35600 0.33371
 Cu9 Cu 0.35783 0.33064 0.36099
 Cu10 Cu 0.33078 0.35883 0.35991
 N11 N 0.34241 0.37189 0.33317
 N12 N 0.33199 0.37292 0.34349
 C13 C 0.32264 0.38437 0.34024
 C14 C 0.32753 0.39080 0.32726
 C15 C 0.34002 0.38264 0.32300
 H16 H 0.31277 0.38749 0.34658
 H17 H 0.34655 0.38417 0.31303
 N18 N 0.33155 0.34349 0.37561
 N19 N 0.34193 0.33284 0.37603
 C20 C 0.33902 0.32370 0.38752
 C21 C 0.32630 0.32888 0.39461
 C22 C 0.32176 0.34137 0.38683
 H23 H 0.34529 0.31365 0.39020
 H24 H 0.31175 0.34803 0.38887
 H25 H 0.34070 0.34096 0.34918
 H26 H 0.35340 0.35341 0.36012
 N27 N 0.37031 0.83243 -0.15498
 N28 N 0.37024 0.84256 -0.16554
 C29 C 0.38119 0.83926 -0.17534
 C30 C 0.38845 0.82647 -0.17058
 C31 C 0.38130 0.82233 -0.15770
 H32 H 0.38340 0.84535 -0.18543
 H33 H 0.38356 0.81248 -0.15110
 Cu34 Cu 0.35507 0.85838 -0.16588
 Cu35 Cu 0.35552 0.83248 -0.13900
 Cu36 Cu 0.32869 0.86089 -0.13948
 N37 N 0.33990 0.87421 -0.16622
 N38 N 0.32968 0.87513 -0.15571
 C39 C 0.32004 0.88638 -0.15880
 C40 C 0.32454 0.89282 -0.17187
 C41 C 0.33710 0.88488 -0.17640
 H42 H 0.31018 0.88926 -0.15234
 H43 H 0.34333 0.88640 -0.18655
 N44 N 0.32951 0.84546 -0.12399
 N45 N 0.33964 0.83456 -0.12383
 C46 C 0.33659 0.82532 -0.11243
 C47 C 0.32406 0.83076 -0.10516
 C48 C 0.31980 0.84345 -0.11272
 H49 H 0.34265 0.81510 -0.10992
 H50 H 0.30998 0.85031 -0.11051
 H51 H 0.33849 0.84301 -0.15056
 H52 H 0.35138 0.85517 -0.13951
 N53 N 0.87002 0.33251 -0.15846
 N54 N 0.86848 0.34244 -0.16908
 C55 C 0.87933 0.34020 -0.17927
 C56 C 0.88806 0.32827 -0.17475
 C57 C 0.88189 0.32357 -0.16157
 H58 H 0.88054 0.34648 -0.18939
 H59 H 0.88550 0.31413 -0.15496
 Cu60 Cu 0.85200 0.35682 -0.16929
 Cu61 Cu 0.85603 0.33152 -0.14187
 Cu62 Cu 0.82922 0.35970 -0.13971
 N63 N 0.83818 0.37358 -0.16685
 N64 N 0.82937 0.37473 -0.15522
 C65 C 0.82022 0.38668 -0.15687
 C66 C 0.82359 0.39332 -0.17018
 C67 C 0.83495 0.38477 -0.17631
 H68 H 0.81127 0.38982 -0.14935
 H69 H 0.83995 0.38618 -0.18710
 N70 N 0.83075 0.34350 -0.12509
 N71 N 0.84084 0.33261 -0.12596
 C72 C 0.83825 0.32270 -0.11501
 C73 C 0.82603 0.32771 -0.10694
 C74 C 0.82151 0.34083 -0.11359
 H75 H 0.84437 0.31234 -0.11336
 H76 H 0.81179 0.34754 -0.11062
 H77 H 0.83768 0.34170 -0.15166
 H78 H 0.85190 0.35427 -0.14266
 N79 N 0.87013 0.82951 0.34593
 N80 N 0.87039 0.83951 0.33525
 C81 C 0.88152 0.83595 0.32572
 C82 C 0.88853 0.82313 0.33078
 C83 C 0.88106 0.81928 0.34356
 H84 H 0.88407 0.84192 0.31563
 H85 H 0.88311 0.80953 0.35036
 Cu86 Cu 0.85551 0.85560 0.33454
 Cu87 Cu 0.85500 0.82985 0.36157
 Cu88 Cu 0.82865 0.85862 0.36049
 N89 N 0.84069 0.87177 0.33400
 N90 N 0.83030 0.87289 0.34433
 C91 C 0.82097 0.88435 0.34110
 C92 C 0.82581 0.89071 0.32811
 C93 C 0.83828 0.88251 0.32378
 H94 H 0.81102 0.88739 0.34738
 H95 H 0.84468 0.88388 0.31371
 N96 N 0.82881 0.84313 0.37595
 N97 N 0.83882 0.83215 0.37638
 C98 C 0.83540 0.82294 0.38769
 C99 C 0.82272 0.82847 0.39464
 C100 C 0.81876 0.84120 0.38697
 H101 H 0.84132 0.81268 0.39036
 H102 H 0.80897 0.84816 0.38895
 H103 H 0.83836 0.84062 0.34965
 H104 H 0.85122 0.85265 0.36088
 N105 N 0.62947 0.66938 0.34375
 N106 N 0.62960 0.65955 0.33295
 C107 C 0.61873 0.66319 0.32319
 C108 C 0.61148 0.67588 0.32824
 C109 C 0.61855 0.67957 0.34125
 H110 H 0.61649 0.65732 0.31300
 H111 H 0.61618 0.68918 0.34815
 Cu112 Cu 0.64452 0.64347 0.33243
 Cu113 Cu 0.64401 0.66879 0.35984
 Cu114 Cu 0.67022 0.63990 0.35936
 N115 N 0.65927 0.62724 0.33229
 N116 N 0.66917 0.62587 0.34301
 C117 C 0.67847 0.61432 0.34006
 C118 C 0.67414 0.60814 0.32684
 C119 C 0.66199 0.61656 0.32211
 H120 H 0.68803 0.61102 0.34672
 H121 H 0.65597 0.61531 0.31183
 N122 N 0.66953 0.65517 0.37497
 N123 N 0.65961 0.66625 0.37512
 C124 C 0.66273 0.67538 0.38654
 C125 C 0.67511 0.66969 0.39385
 C126 C 0.67921 0.65696 0.38627
 H127 H 0.65687 0.68572 0.38902
 H128 H 0.68891 0.64994 0.38848
 H129 H 0.66108 0.65812 0.34837
 H130 H 0.64766 0.64598 0.35895
 N131 N 0.62927 0.17030 -0.15652
 N132 N 0.62938 0.16132 -0.16800
 C133 C 0.61825 0.16542 -0.17727
 C134 C 0.61085 0.17754 -0.17121
 C135 C 0.61809 0.18042 -0.15810
 H136 H 0.61595 0.16030 -0.18782
 H137 H 0.61574 0.18951 -0.15056
 Cu138 Cu 0.64442 0.14555 -0.17021
 Cu139 Cu 0.64433 0.16894 -0.14104
 Cu140 Cu 0.67049 0.14021 -0.14358
 N141 N 0.65855 0.12884 -0.17074
 N142 N 0.66864 0.12673 -0.16032
 C143 C 0.67713 0.11466 -0.16371
 C144 C 0.67197 0.10897 -0.17688
 C145 C 0.66025 0.11818 -0.18112
 H146 H 0.68656 0.11058 -0.15728
 H147 H 0.65372 0.11735 -0.19114
 N148 N 0.67052 0.15498 -0.12744
 N149 N 0.66043 0.16585 -0.12644
 C150 C 0.66384 0.17454 -0.11479
 C151 C 0.67659 0.16883 -0.10819
 C152 C 0.68063 0.15649 -0.11644
 H153 H 0.65790 0.18466 -0.11168
 H154 H 0.69051 0.14953 -0.11487
 H155 H 0.66124 0.15897 -0.15343
 H156 H 0.64788 0.14607 -0.14362
 N157 N 0.12920 0.66935 -0.15734
 N158 N 0.12974 0.65884 -0.16750
 C159 C 0.11907 0.66164 -0.17772
 C160 C 0.11149 0.67449 -0.17364
 C161 C 0.11816 0.67916 -0.16073
 H162 H 0.11722 0.65513 -0.18760
 H163 H 0.11550 0.68917 -0.15453
 Cu164 Cu 0.14497 0.64313 -0.16675
 Cu165 Cu 0.14343 0.67005 -0.14093
 Cu166 Cu 0.17040 0.64183 -0.13946
 N167 N 0.16018 0.62738 -0.16592
 N168 N 0.17003 0.62693 -0.15509
 C169 C 0.17971 0.61552 -0.15738
 C170 C 0.17566 0.60849 -0.17027
 C171 C 0.16330 0.61626 -0.17550
 H172 H 0.18932 0.61288 -0.15049
 H173 H 0.15740 0.61425 -0.18573
 N174 N 0.16900 0.65789 -0.12467
 N175 N 0.15882 0.66873 -0.12525
 C176 C 0.16147 0.67846 -0.11418
 C177 C 0.17380 0.67340 -0.10635
 C178 C 0.17834 0.66043 -0.11325
 H179 H 0.15529 0.68874 -0.11228
 H180 H 0.18811 0.65370 -0.11048
 H181 H 0.16091 0.65917 -0.15153
 H182 H 0.14770 0.64736 -0.14040
 N183 N 0.12745 0.16852 0.34464
 N184 N 0.12798 0.15874 0.33380
 C185 C 0.11719 0.16218 0.32389
 C186 C 0.10956 0.17466 0.32890
 C187 C 0.11632 0.17845 0.34202
 H188 H 0.11534 0.15638 0.31359
 H189 H 0.11371 0.18804 0.34885
 Cu190 Cu 0.14339 0.14317 0.33337
 Cu191 Cu 0.14196 0.16843 0.36071
 Cu192 Cu 0.16939 0.14063 0.36022
 N193 N 0.15865 0.12744 0.33328
 N194 N 0.16875 0.12648 0.34386
 C195 C 0.17825 0.11506 0.34091
 C196 C 0.17380 0.10858 0.32784
 C197 C 0.16141 0.11667 0.32322
 H198 H 0.18792 0.11198 0.34753
 H199 H 0.15517 0.11506 0.31312
 N200 N 0.16809 0.15601 0.37581
 N201 N 0.15760 0.16655 0.37599
 C202 C 0.16022 0.17585 0.38738
 C203 C 0.17287 0.17088 0.39469
 C204 C 0.17767 0.15836 0.38712
 H205 H 0.15382 0.18588 0.38983
 H206 H 0.18774 0.15186 0.38933
 H207 H 0.15950 0.15838 0.34924
 H208 H 0.14665 0.14571 0.35987
 N209 N 0.62923 0.33273 0.65436
 N210 N 0.63027 0.34276 0.66494
 C211 C 0.61953 0.33989 0.67513
 C212 C 0.61140 0.32751 0.67056
 C213 C 0.61781 0.32321 0.65742
 H214 H 0.61807 0.34595 0.68535
 H215 H 0.61481 0.31350 0.65090
 Cu216 Cu 0.64636 0.35773 0.66467
 Cu217 Cu 0.64352 0.33182 0.63810
 Cu218 Cu 0.67233 0.35834 0.63763
 N219 N 0.66242 0.37273 0.66431
 N220 N 0.67254 0.37287 0.65366
 C221 C 0.68271 0.38381 0.65628
 C222 C 0.67871 0.39085 0.66921
 C223 C 0.66585 0.38358 0.67409
 H224 H 0.69252 0.38619 0.64953
 H225 H 0.65975 0.38579 0.68419
 N226 N 0.67010 0.34269 0.62241
 N227 N 0.65904 0.33269 0.62257
 C228 C 0.66104 0.32303 0.61135
 C229 C 0.67389 0.32720 0.60381
 C230 C 0.67944 0.33963 0.61105
 H231 H 0.65410 0.31328 0.60919
 H232 H 0.68983 0.34556 0.60860
 H233 H 0.66163 0.34137 0.64915
 H234 H 0.64941 0.35429 0.63824
 N235 N 0.62887 0.83049 1.15341
 N236 N 0.62935 0.84045 1.16408
 C237 C 0.61853 0.83713 1.17406
 C238 C 0.61094 0.82451 1.16927
 C239 C 0.61775 0.82053 1.15621
 H240 H 0.61658 0.84313 1.18423
 H241 H 0.61516 0.81083 1.14951
 Cu242 Cu 0.64471 0.85617 1.16416
 Cu243 Cu 0.64333 0.83048 1.13721
 Cu244 Cu 0.67060 0.85852 1.13719
 N245 N 0.65998 0.87196 1.16405
 N246 N 0.67001 0.87281 1.15336
 C247 C 0.67969 0.88412 1.15615
 C248 C 0.67547 0.89068 1.16924
 C249 C 0.66299 0.88272 1.17406
 H250 H 0.68942 0.88700 1.14948
 H251 H 0.65693 0.88437 1.18428
 N252 N 0.66933 0.84303 1.12179
 N253 N 0.65893 0.83236 1.12179
 C254 C 0.66165 0.82298 1.11047
 C255 C 0.67426 0.82807 1.10307
 C256 C 0.67893 0.84072 1.11048
 H257 H 0.65537 0.81282 1.10817
 H258 H 0.68895 0.84730 1.10819
 H259 H 0.66079 0.84079 1.14847
 H260 H 0.64787 0.85319 1.13772
 N261 N 0.12869 0.33134 1.15409
 N262 N 0.12906 0.34108 1.16497
 C263 C 0.11793 0.33776 1.17460
 C264 C 0.11026 0.32538 1.16940
 C265 C 0.11734 0.32151 1.15643
 H266 H 0.11584 0.34357 1.18484
 H267 H 0.11476 0.31198 1.14951
 Cu268 Cu 0.14446 0.35668 1.16589
 Cu269 Cu 0.14363 0.33147 1.13835
 Cu270 Cu 0.17085 0.35951 1.13926
 N271 N 0.15950 0.37266 1.16593
 N272 N 0.16971 0.37378 1.15544
 C273 C 0.17899 0.38539 1.15841
 C274 C 0.17425 0.39185 1.17139
 C275 C 0.16193 0.38354 1.17594
 H276 H 0.18874 0.38858 1.15190
 H277 H 0.15556 0.38506 1.18601
 N278 N 0.17013 0.34405 1.12379
 N279 N 0.15970 0.33341 1.12342
 C280 C 0.16277 0.32405 1.11217
 C281 C 0.17566 0.32910 1.10520
 C282 C 0.18011 0.34172 1.11280
 H283 H 0.15653 0.31393 1.10963
 H284 H 0.19022 0.34828 1.11085
 H285 H 0.16085 0.34162 1.15011
 H286 H 0.14808 0.35424 1.13941
 N287 N 0.13140 0.83456 0.65798
 N288 N 0.13344 0.84437 0.66861
 C289 C 0.12274 0.84233 0.67899
 C290 C 0.11357 0.83066 0.67460
 C291 C 0.11933 0.82590 0.66128
 H292 H 0.12192 0.84856 0.68917
 H293 H 0.11531 0.81659 0.65471
 Cu294 Cu 0.15030 0.85838 0.66852
 Cu295 Cu 0.14502 0.83329 0.64114
 Cu296 Cu 0.17242 0.86094 0.63843
 N297 N 0.16440 0.87491 0.66572
 N298 N 0.17293 0.87595 0.65389
 C299 C 0.18225 0.88784 0.65524
 C300 C 0.17931 0.89456 0.66858
 C301 C 0.16800 0.88613 0.67502
 H302 H 0.19097 0.89095 0.64745
 H303 H 0.16321 0.88768 0.68587
 N304 N 0.17024 0.84480 0.62388
 N305 N 0.15993 0.83410 0.62495
 C306 C 0.16214 0.82411 0.61402
 C307 C 0.17434 0.82888 0.60575
 C308 C 0.17925 0.84193 0.61226
 H309 H 0.15579 0.81383 0.61254
 H310 H 0.18910 0.84843 0.60916
 H311 H 0.16381 0.84303 0.65056
 H312 H 0.14968 0.85592 0.64190
 N313 N 0.37102 0.66896 0.65527
 N314 N 0.36985 0.66013 0.66683
 C315 C 0.38075 0.66376 0.67656
 C316 C 0.38911 0.67542 0.67072
 C317 C 0.38267 0.67852 0.65726
 H318 H 0.38217 0.65869 0.68729
 H319 H 0.38577 0.68749 0.64982
 Cu320 Cu 0.35380 0.64520 0.66851
 Cu321 Cu 0.35638 0.66870 0.63933
 Cu322 Cu 0.32644 0.64387 0.64289
 N323 N 0.33903 0.62893 0.66796
 N324 N 0.32848 0.62843 0.65778
 C325 C 0.31923 0.61672 0.66043
 C326 C 0.32429 0.60951 0.67288
 C327 C 0.33681 0.61750 0.67748
 H328 H 0.30919 0.61406 0.65415
 H329 H 0.34340 0.61550 0.68731
 N330 N 0.32866 0.65757 0.62609
 N331 N 0.34020 0.66687 0.62454
 C332 C 0.33799 0.67530 0.61240
 C333 C 0.32452 0.67093 0.60607
 C334 C 0.31886 0.65974 0.61497
 H335 H 0.34520 0.68443 0.60884
 H336 H 0.30810 0.65408 0.61376
 H337 H 0.33897 0.66144 0.65219
 H338 H 0.34958 0.64652 0.64209
 N339 N 0.37159 0.16980 1.15481
 N340 N 0.37223 0.16001 1.16565
 C341 C 0.38329 0.16412 1.17502
 C342 C 0.38985 0.17709 1.16968
 C343 C 0.38220 0.18045 1.15691
 H344 H 0.38609 0.15841 1.18515
 H345 H 0.38393 0.19014 1.14991
 Cu346 Cu 0.35795 0.14337 1.16681
 Cu347 Cu 0.35646 0.16856 1.13930
 Cu348 Cu 0.33124 0.13871 1.14096
 N349 N 0.34382 0.12659 1.16761
 N350 N 0.33348 0.12479 1.15736
 C351 C 0.32473 0.11291 1.16084
 C352 C 0.32991 0.10699 1.17390
 C353 C 0.34197 0.11590 1.17799
 H354 H 0.31495 0.10923 1.15467
 H355 H 0.34847 0.11500 1.18802
 N356 N 0.33079 0.15396 1.12525
 N357 N 0.34037 0.16535 1.12464
 C358 C 0.33663 0.17424 1.11320
 C359 C 0.32420 0.16808 1.10635
 C360 C 0.32071 0.15531 1.11421
 H361 H 0.34216 0.18469 1.11037
 H362 H 0.31120 0.14790 1.11234
 H363 H 0.34023 0.15728 1.15145
 H364 H 0.35358 0.14559 1.14042
 N365 N 0.87129 0.67009 1.15514
 N366 N 0.87112 0.66015 1.16586
 C367 C 0.88178 0.66385 1.17581
 C368 C 0.88894 0.67671 1.17097
 C369 C 0.88204 0.68043 1.15789
 H370 H 0.88396 0.65790 1.18597
 H371 H 0.88442 0.69013 1.15108
 Cu372 Cu 0.85642 0.64384 1.16599
 Cu373 Cu 0.85708 0.66936 1.13875
 Cu374 Cu 0.83116 0.64005 1.13878
 N375 N 0.84175 0.62749 1.16605
 N376 N 0.83200 0.62605 1.15521
 C377 C 0.82266 0.61448 1.15811
 C378 C 0.82681 0.60836 1.17142
 C379 C 0.83889 0.61685 1.17626
 H380 H 0.81318 0.61114 1.15135
 H381 H 0.84475 0.61567 1.18663
 N382 N 0.83204 0.65533 1.12314
 N383 N 0.84180 0.66659 1.12317
 C384 C 0.83875 0.67570 1.11169
 C385 C 0.82659 0.66981 1.10417
 C386 C 0.82256 0.65698 1.11167
 H387 H 0.84448 0.68617 1.10935
 H388 H 0.81297 0.64982 1.10933
 H389 H 0.83996 0.65839 1.14992
 H390 H 0.85364 0.64653 1.13946
 N391 N 0.87287 0.16735 0.65695
 N392 N 0.87132 0.15805 0.66811
 C393 C 0.88216 0.16095 0.67812
 C394 C 0.89090 0.17261 0.67288
 C395 C 0.88473 0.17650 0.65949
 H396 H 0.88327 0.15541 0.68866
 H397 H 0.88820 0.18569 0.65246
 Cu398 Cu 0.85473 0.14377 0.66922
 Cu399 Cu 0.85861 0.16777 0.64070
 Cu400 Cu 0.83069 0.14050 0.64057
 N401 N 0.84021 0.12744 0.66791
 N402 N 0.83084 0.12616 0.65675
 C403 C 0.82158 0.11437 0.65913
 C404 C 0.82549 0.10797 0.67241
 C405 C 0.83727 0.11650 0.67775
 H406 H 0.81238 0.11102 0.65202
 H407 H 0.84291 0.11512 0.68821
 N408 N 0.83243 0.15601 0.62518
 N409 N 0.84313 0.16639 0.62521
 C410 C 0.84080 0.17586 0.61386
 C411 C 0.82812 0.17114 0.60639
 C412 C 0.82302 0.15861 0.61381
 H413 H 0.84743 0.18581 0.61156
 H414 H 0.81286 0.15228 0.61145
 H415 H 0.84018 0.15853 0.65153
 H416 H 0.85355 0.14511 0.64250
 N417 N 0.33232 0.37418 0.65698
 N418 N 0.34164 0.37279 0.66816
 C419 C 0.33914 0.38399 0.67778
 C420 C 0.32769 0.39282 0.67228
 C421 C 0.32352 0.38631 0.65913
 H422 H 0.34470 0.38523 0.68830
 H423 H 0.31431 0.38971 0.65206
 Cu424 Cu 0.35513 0.35576 0.66993
 Cu425 Cu 0.33131 0.35930 0.64134
 Cu426 Cu 0.35829 0.33113 0.64197
 N427 N 0.37177 0.34169 0.66877
 N428 N 0.37299 0.33198 0.65793
 C429 C 0.38506 0.32312 0.66042
 C430 C 0.39168 0.32765 0.67342
 C431 C 0.38301 0.33939 0.67848
 H432 H 0.38848 0.31381 0.65355
 H433 H 0.38450 0.34546 0.68867
 N434 N 0.34237 0.33238 0.62681
 N435 N 0.33215 0.34318 0.62655
 C436 C 0.32235 0.34052 0.61552
 C437 C 0.32666 0.32750 0.60855
 C438 C 0.33932 0.32255 0.61593
 H439 H 0.31244 0.34718 0.61311
 H440 H 0.34545 0.31226 0.61390
 H441 H 0.34019 0.34105 0.65256
 H442 H 0.35403 0.35387 0.64329
 N443 N 0.32858 0.87073 0.15645
 N444 N 0.33752 0.87095 0.16801
 C445 C 0.33320 0.88215 0.17703
 C446 C 0.32096 0.88924 0.17074
 C447 C 0.31825 0.88176 0.15774
 H448 H 0.33830 0.88473 0.18754
 H449 H 0.30919 0.88390 0.15004
 Cu450 Cu 0.35357 0.85627 0.17070
 Cu451 Cu 0.33041 0.85558 0.14118
 Cu452 Cu 0.36017 0.83061 0.14411
 N453 N 0.37098 0.84293 0.17130
 N454 N 0.37358 0.83303 0.16088
 C455 C 0.38595 0.82499 0.16439
 C456 C 0.39136 0.83021 0.17765
 C457 C 0.38165 0.84154 0.18180
 H458 H 0.39039 0.81573 0.15804
 H459 H 0.38209 0.84795 0.19189
 N460 N 0.34540 0.82990 0.12793
 N461 N 0.33406 0.83946 0.12680
 C462 C 0.32546 0.83558 0.11517
 C463 C 0.33176 0.82307 0.10873
 C464 C 0.34431 0.81968 0.11705
 H465 H 0.31507 0.84105 0.11196
 H466 H 0.35172 0.81014 0.11562
 H467 H 0.34081 0.83918 0.15373
 H468 H 0.35351 0.85287 0.14410
 N469 N 0.83035 0.37112 0.15533
 N470 N 0.83966 0.37075 0.16661
 C471 C 0.83646 0.38220 0.17574
 C472 C 0.82455 0.39011 0.16986
 C473 C 0.82084 0.38282 0.15695
 H474 H 0.84199 0.38431 0.18614
 H475 H 0.81163 0.38551 0.14960
 Cu476 Cu 0.85429 0.35478 0.16910
 Cu477 Cu 0.83080 0.35581 0.13998
 Cu478 Cu 0.85981 0.32975 0.14198
 N479 N 0.87178 0.34168 0.16888
 N480 N 0.87391 0.33184 0.15831
 C481 C 0.88627 0.32361 0.16141
 C482 C 0.89215 0.32869 0.17455
 C483 C 0.88272 0.34010 0.17905
 H484 H 0.89033 0.31427 0.15492
 H485 H 0.88345 0.34635 0.18922
 N486 N 0.84441 0.32952 0.12633
 N487 N 0.83331 0.33940 0.12556
 C488 C 0.82425 0.33578 0.11418
 C489 C 0.83000 0.32310 0.10754
 C490 C 0.84271 0.31937 0.11548
 H491 H 0.81397 0.34160 0.11122
 H492 H 0.84984 0.30968 0.11376
 H493 H 0.84068 0.33869 0.15186
 H494 H 0.85372 0.35222 0.14249
 N495 N 0.83121 0.87194 0.65728
 N496 N 0.84145 0.87151 0.66776
 C497 C 0.83820 0.88213 0.67785
 C498 C 0.82534 0.88956 0.67331
 C499 C 0.82115 0.88285 0.66029
 H500 H 0.84444 0.88409 0.68790
 H501 H 0.81126 0.88538 0.65376
 Cu502 Cu 0.85745 0.85647 0.66745
 Cu503 Cu 0.83102 0.85775 0.64096
 Cu504 Cu 0.85964 0.83118 0.64019
 N505 N 0.87353 0.84153 0.66694
 N506 N 0.87433 0.83177 0.65611
 C507 C 0.88588 0.82229 0.65859
 C508 C 0.89263 0.82633 0.67164
 C509 C 0.88456 0.83851 0.67675
 H510 H 0.88876 0.81279 0.65174
 H511 H 0.88631 0.84436 0.68703
 N512 N 0.84372 0.83236 0.62508
 N513 N 0.83278 0.84244 0.62540
 C514 C 0.82310 0.83963 0.61429
 C515 C 0.82827 0.82729 0.60669
 C516 C 0.84128 0.82288 0.61378
 H517 H 0.81269 0.84565 0.61228
 H518 H 0.84801 0.81308 0.61130
 H519 H 0.84184 0.84047 0.65188
 H520 H 0.85395 0.85364 0.64103
 N521 N 0.66512 0.62720 0.66040
 N522 N 0.65568 0.62905 0.67146
 C523 C 0.65803 0.61822 0.68153
 C524 C 0.66951 0.60915 0.67647
 C525 C 0.67384 0.61512 0.66309
 H526 H 0.65218 0.61728 0.69196
 H527 H 0.68295 0.61126 0.65610
 Cu528 Cu 0.64190 0.64595 0.67233
 Cu529 Cu 0.66593 0.64116 0.64389
 Cu530 Cu 0.63828 0.66863 0.64291
 N531 N 0.62510 0.65981 0.67048
 N532 N 0.62366 0.66864 0.65896
 C533 C 0.61170 0.67774 0.66104
 C534 C 0.60536 0.67431 0.67451
 C535 C 0.61411 0.66296 0.68027
 H536 H 0.60828 0.68662 0.65364
 H537 H 0.61293 0.65785 0.69101
 N538 N 0.65412 0.66680 0.62775
 N539 N 0.66474 0.65639 0.62815
 C540 C 0.67451 0.65877 0.61698
 C541 C 0.66972 0.67119 0.60924
 C542 C 0.65685 0.67606 0.61632
 H543 H 0.68469 0.65237 0.61499
 H544 H 0.65039 0.68601 0.61372
 H545 H 0.65666 0.65977 0.65404
 H546 H 0.64316 0.64604 0.64562
 N547 N 0.66721 0.12523 0.15855
 N548 N 0.65784 0.12714 0.16966
 C549 C 0.66075 0.11681 0.18008
 C550 C 0.67248 0.10796 0.17518
 C551 C 0.67638 0.11354 0.16150
 H552 H 0.65497 0.11591 0.19055
 H553 H 0.68534 0.10959 0.15437
 Cu554 Cu 0.64288 0.14305 0.16949
 Cu555 Cu 0.66670 0.13820 0.14120
 Cu556 Cu 0.64693 0.17157 0.14601
 N557 N 0.62743 0.15842 0.16777
 N558 N 0.62916 0.16973 0.15861
 C559 C 0.61785 0.17962 0.16067
 C560 C 0.60853 0.17406 0.17159
 C561 C 0.61490 0.16065 0.17592
 H562 H 0.61694 0.19036 0.15519
 H563 H 0.61117 0.15355 0.18489
 N564 N 0.66140 0.16832 0.12984
 N565 N 0.66866 0.15554 0.12776
 C566 C 0.67771 0.15694 0.11587
 C567 C 0.67590 0.17122 0.11026
 C568 C 0.66556 0.17816 0.11932
 H569 H 0.68532 0.14838 0.11185
 H570 H 0.66153 0.18958 0.11845
 H571 H 0.66213 0.15572 0.15464
 H572 H 0.64576 0.14907 0.14346
 N573 N 0.16945 0.62779 0.15750
 N574 N 0.15973 0.62779 0.16849
 C575 C 0.16340 0.61672 0.17795
 C576 C 0.17599 0.60947 0.17250
 C577 C 0.17960 0.61675 0.15957
 H578 H 0.15768 0.61437 0.18824
 H579 H 0.18917 0.61449 0.15249
 Cu580 Cu 0.14382 0.64286 0.16964
 Cu581 Cu 0.16894 0.64277 0.14188
 Cu582 Cu 0.14059 0.66958 0.14372
 N583 N 0.12780 0.65781 0.17051
 N584 N 0.12658 0.66817 0.16025
 C585 C 0.11506 0.67741 0.16367
 C586 C 0.10877 0.67253 0.17671
 C587 C 0.11708 0.66013 0.18084
 H588 H 0.11182 0.68721 0.15741
 H589 H 0.11567 0.65362 0.19080
 N590 N 0.15584 0.66910 0.12785
 N591 N 0.16658 0.65882 0.12713
 C592 C 0.17571 0.66196 0.11564
 C593 C 0.17041 0.67473 0.10886
 C594 C 0.15788 0.67905 0.11683
 H595 H 0.18583 0.65583 0.11277
 H596 H 0.15117 0.68903 0.11508
 H597 H 0.15878 0.65959 0.15408
 H598 H 0.14602 0.64709 0.14323
 N599 N 0.16614 0.12753 0.66180
 N600 N 0.15550 0.12983 0.67170
 C601 C 0.15682 0.11952 0.68249
 C602 C 0.16886 0.11035 0.67907
 C603 C 0.17457 0.11569 0.66594
 H604 H 0.14989 0.11898 0.69230
 H605 H 0.18438 0.11156 0.66009
 Cu606 Cu 0.14151 0.14654 0.66977
 Cu607 Cu 0.16888 0.14062 0.64479
 Cu608 Cu 0.14381 0.17036 0.64121
 N609 N 0.12745 0.16316 0.66767
 N610 N 0.12836 0.17242 0.65641
 C611 C 0.11770 0.18312 0.65781
 C612 C 0.10975 0.18033 0.67060
 C613 C 0.11617 0.16766 0.67663
 H614 H 0.11611 0.19243 0.65032
 H615 H 0.11309 0.16240 0.68694
 N616 N 0.16021 0.16639 0.62699
 N617 N 0.16978 0.15509 0.62836
 C618 C 0.18018 0.15597 0.61753
 C619 C 0.17692 0.16834 0.60900
 C620 C 0.16428 0.17473 0.61525
 H621 H 0.18978 0.14856 0.61627
 H622 H 0.15887 0.18503 0.61184
 H623 H 0.15972 0.15970 0.65419
 H624 H 0.14665 0.14749 0.64343
 N625 N 0.33089 0.62788 0.34386
 N626 N 0.34060 0.62783 0.33287
 C627 C 0.33687 0.61673 0.32346
 C628 C 0.32424 0.60952 0.32895
 C629 C 0.32068 0.61684 0.34184
 H630 H 0.34260 0.61433 0.31321
 H631 H 0.31111 0.61460 0.34895
 Cu632 Cu 0.35661 0.64282 0.33162
 Cu633 Cu 0.33152 0.64291 0.35940
 Cu634 Cu 0.36007 0.66961 0.35741
 N635 N 0.37276 0.65770 0.33068
 N636 N 0.37407 0.66809 0.34088
 C637 C 0.38564 0.67728 0.33738
 C638 C 0.39187 0.67234 0.32435
 C639 C 0.38346 0.65996 0.32031
 H640 H 0.38895 0.68711 0.34357
 H641 H 0.38477 0.65343 0.31036
 N642 N 0.34481 0.66925 0.37327
 N643 N 0.33400 0.65901 0.37406
 C644 C 0.32487 0.66225 0.38550
 C645 C 0.33023 0.67506 0.39218
 C646 C 0.34280 0.67929 0.38420
 H647 H 0.31468 0.65617 0.38838
 H648 H 0.34956 0.68927 0.38586
 H649 H 0.34181 0.65965 0.34711
 H650 H 0.35448 0.64714 0.35801
 N651 N 0.33259 0.12898 0.84352
 N652 N 0.34193 0.12943 0.83224
 C653 C 0.33829 0.11840 0.82276
 C654 C 0.32609 0.11069 0.82844
 C655 C 0.32266 0.11765 0.84157
 H656 H 0.34379 0.11639 0.81231
 H657 H 0.31337 0.11499 0.84889
 Cu658 Cu 0.35746 0.14479 0.83036
 Cu659 Cu 0.33338 0.14372 0.85928
 Cu660 Cu 0.36260 0.16957 0.85798
 N661 N 0.37454 0.15855 0.83070
 N662 N 0.37662 0.16808 0.84155
 C663 C 0.38874 0.17674 0.83852
 C664 C 0.39453 0.17230 0.82513
 C665 C 0.38529 0.16081 0.82039
 H666 H 0.39263 0.18601 0.84520
 H667 H 0.38600 0.15500 0.80998
 N668 N 0.34729 0.16935 0.87372
 N669 N 0.33609 0.15953 0.87419
 C670 C 0.32694 0.16292 0.88560
 C671 C 0.33275 0.17539 0.89256
 C672 C 0.34557 0.17925 0.88480
 H673 H 0.31651 0.15716 0.88828
 H674 H 0.35270 0.18893 0.88671
 H675 H 0.34371 0.16084 0.84759
 H676 H 0.35643 0.14712 0.85704
 N677 N 0.83421 0.62723 0.84035
 N678 N 0.84449 0.62828 0.82990
 C679 C 0.84173 0.61770 0.81963
 C680 C 0.82914 0.60967 0.82400
 C681 C 0.82461 0.61596 0.83713
 H682 H 0.84806 0.61624 0.80953
 H683 H 0.81478 0.61290 0.84358
 Cu684 Cu 0.85980 0.64401 0.83050
 Cu685 Cu 0.83336 0.64117 0.85689
 Cu686 Cu 0.86067 0.66921 0.85785
 N687 N 0.87507 0.65979 0.83099
 N688 N 0.87533 0.66957 0.84183
 C689 C 0.88642 0.67964 0.83936
 C690 C 0.89343 0.67595 0.82632
 C691 C 0.88600 0.66337 0.82120
 H692 H 0.88887 0.68922 0.84628
 H693 H 0.88811 0.65759 0.81094
 N694 N 0.84488 0.66700 0.87303
 N695 N 0.83445 0.65635 0.87267
 C696 C 0.82466 0.65853 0.88385
 C697 C 0.82923 0.67106 0.89155
 C698 C 0.84200 0.67620 0.88444
 H699 H 0.81455 0.65198 0.88584
 H700 H 0.84824 0.68632 0.88699
 H701 H 0.84334 0.65909 0.84615
 H702 H 0.85601 0.64653 0.85694
 N703 N 0.83409 0.12405 0.34108
 N704 N 0.84342 0.12602 0.32994
 C705 C 0.84100 0.11517 0.31990
 C706 C 0.82963 0.10597 0.32510
 C707 C 0.82541 0.11190 0.33849
 H708 H 0.84662 0.11438 0.30934
 H709 H 0.81626 0.10807 0.34548
 Cu710 Cu 0.85693 0.14321 0.32889
 Cu711 Cu 0.83286 0.13822 0.35729
 Cu712 Cu 0.85913 0.16707 0.35765
 N713 N 0.87293 0.15811 0.33042
 N714 N 0.87378 0.16743 0.34161
 C715 C 0.88538 0.17700 0.33938
 C716 C 0.89211 0.17338 0.32615
 C717 C 0.88397 0.16142 0.32070
 H718 H 0.88837 0.18622 0.34655
 H719 H 0.88566 0.15589 0.31024
 N720 N 0.84336 0.16474 0.37286
 N721 N 0.83339 0.15368 0.37274
 C722 C 0.82360 0.15558 0.38396
 C723 C 0.82768 0.16838 0.39146
 C724 C 0.84017 0.17399 0.38418
 H725 H 0.81386 0.14857 0.38617
 H726 H 0.84608 0.18433 0.38660
 H727 H 0.84143 0.15697 0.34659
 H728 H 0.85548 0.14425 0.35560
 N729 N 0.66821 0.37313 0.34335
 N730 N 0.65857 0.37189 0.33241
 C731 C 0.66105 0.38308 0.32271
 C732 C 0.67281 0.39172 0.32791
 C733 C 0.67719 0.38513 0.34097
 H734 H 0.65521 0.38445 0.31235
 H735 H 0.68661 0.38842 0.34784
 Cu736 Cu 0.64464 0.35509 0.33097
 Cu737 Cu 0.66922 0.35830 0.35909
 Cu738 Cu 0.64179 0.33048 0.35903
 N739 N 0.62809 0.34078 0.33225
 N740 N 0.62695 0.33118 0.34320
 C741 C 0.61504 0.32205 0.34078
 C742 C 0.60842 0.32628 0.32768
 C743 C 0.61695 0.33812 0.32251
 H744 H 0.61180 0.31268 0.34769
 H745 H 0.61548 0.34397 0.31217
 N746 N 0.65783 0.33169 0.37405
 N747 N 0.66832 0.34227 0.37404
 C748 C 0.67825 0.33946 0.38495
 C749 C 0.67371 0.32658 0.39211
 C750 C 0.66080 0.32188 0.38497
 H751 H 0.68838 0.34591 0.38712
 H752 H 0.65447 0.31172 0.38717
 H753 H 0.65982 0.34024 0.34804
 H754 H 0.64641 0.35322 0.35760
 N755 N 0.67050 0.87124 0.84512
 N756 N 0.66114 0.87206 0.83389
 C757 C 0.66544 0.88348 0.82509
 C758 C 0.67806 0.89009 0.83119
 C759 C 0.68105 0.88209 0.84383
 H760 H 0.66006 0.88656 0.81484
 H761 H 0.69041 0.88379 0.85131
 Cu762 Cu 0.64462 0.85779 0.83159
 Cu763 Cu 0.66884 0.85563 0.86004
 Cu764 Cu 0.63908 0.83048 0.85662
 N765 N 0.62773 0.84382 0.83004
 N766 N 0.62555 0.83325 0.83996
 C767 C 0.61347 0.82493 0.83608
 C768 C 0.60782 0.83065 0.82311
 C769 C 0.61709 0.84256 0.81951
 H770 H 0.60935 0.81521 0.84201
 H771 H 0.61634 0.84950 0.80976
 N772 N 0.65395 0.82948 0.87272
 N773 N 0.66528 0.83907 0.87402
 C774 C 0.67396 0.83491 0.88549
 C775 C 0.66774 0.82217 0.89164
 C776 C 0.65513 0.81896 0.88333
 H777 H 0.68437 0.84034 0.88878
 H778 H 0.64776 0.80933 0.88457
 H779 H 0.65815 0.83985 0.84700
 H780 H 0.64578 0.85269 0.85791
 N781 N 0.16705 0.37210 0.84325
 N782 N 0.15621 0.37157 0.83334
 C783 C 0.15855 0.38249 0.82330
 C784 C 0.17142 0.39025 0.82725
 C785 C 0.17658 0.38341 0.83990
 H786 H 0.15171 0.38440 0.81362
 H787 H 0.18678 0.38612 0.84590
 Cu788 Cu 0.14090 0.35587 0.83410
 Cu789 Cu 0.16849 0.35759 0.85932
 Cu790 Cu 0.14104 0.32964 0.86049
 N791 N 0.12571 0.34003 0.83452
 N792 N 0.12588 0.32981 0.84498
 C793 C 0.11486 0.31970 0.84247
 C794 C 0.10745 0.32382 0.82979
 C795 C 0.11457 0.33670 0.82493
 H796 H 0.11277 0.30978 0.84904
 H797 H 0.11212 0.34285 0.81494
 N798 N 0.15732 0.33133 0.87514
 N799 N 0.16788 0.34186 0.87467
 C800 C 0.17789 0.33934 0.88558
 C801 C 0.17330 0.32673 0.89319
 C802 C 0.16033 0.32189 0.88634
 H803 H 0.18805 0.34582 0.88751
 H804 H 0.15394 0.31187 0.88896
 H805 H 0.15793 0.34017 0.84846
 H806 H 0.14583 0.35235 0.86025
 N807 N 0.17107 0.87063 0.34464
 N808 N 0.16233 0.87073 0.33294
 C809 C 0.16671 0.88197 0.32396
 C810 C 0.17877 0.88923 0.33042
 C811 C 0.18133 0.88179 0.34349
 H812 H 0.16181 0.88443 0.31333
 H813 H 0.19027 0.88401 0.35131
 Cu814 Cu 0.14670 0.85567 0.32990
 Cu815 Cu 0.16914 0.85541 0.35990
 Cu816 Cu 0.13916 0.83059 0.35682
 N817 N 0.12883 0.84291 0.32943
 N818 N 0.12588 0.83320 0.33998
 C819 C 0.11336 0.82537 0.33644
 C820 C 0.10824 0.83052 0.32305
 C821 C 0.11827 0.84159 0.31883
 H822 H 0.10866 0.81622 0.34284
 H823 H 0.11817 0.84782 0.30861
 N824 N 0.15388 0.82974 0.37305
 N825 N 0.16532 0.83922 0.37421
 C826 C 0.17389 0.83521 0.38581
 C827 C 0.16747 0.82269 0.39219
 C828 C 0.15487 0.81944 0.38388
 H829 H 0.18437 0.84056 0.38901
 H830 H 0.14738 0.80993 0.38527
 H831 H 0.15884 0.83879 0.34747
 H832 H 0.14609 0.85277 0.35652
 C833 C 0.25176 1.03936 0.25171
 C834 C 0.26169 1.03159 0.24244
 C835 C 0.26161 1.01583 0.24258
 C836 C 0.25098 1.00773 0.25114
 C837 C 0.24072 1.01595 0.25996
 C838 C 0.24142 1.03168 0.26067
 C839 C 0.25061 0.99085 0.25088
 C840 C 0.24467 0.98261 0.26287
 C841 C 0.24404 0.96686 0.26259
 C842 C 0.25006 0.95919 0.25047
 C843 C 0.25637 0.96702 0.23856
 C844 C 0.25626 0.98278 0.23867
 H845 H 0.25205 1.05152 0.25192
 H846 H 0.26981 1.01002 0.23586
 H847 H 0.23222 1.01025 0.26646
 H848 H 0.24074 0.98828 0.27266
 H849 H 0.24987 0.94704 0.25033
 H850 H 0.26042 0.98861 0.22904
 C851 C 0.24982 0.53953 0.75129
 C852 C 0.25694 0.53196 0.73971
 C853 C 0.25621 0.51622 0.73919
 C854 C 0.24927 0.50783 0.75059
 C855 C 0.24257 0.51585 0.76233
 C856 C 0.24243 0.53161 0.76252
 C857 C 0.24909 0.49091 0.75028
 C858 C 0.23859 0.48257 0.75881
 C859 C 0.23887 0.46680 0.75900
 C860 C 0.24892 0.45923 0.74971
 C861 C 0.25907 0.46713 0.74075
 C862 C 0.25950 0.48285 0.74150
 H863 H 0.25004 0.55168 0.75157
 H864 H 0.26095 0.51075 0.72964
 H865 H 0.23763 0.51006 0.77161
 H866 H 0.23022 0.48813 0.76552
 H867 H 0.24887 0.44707 0.74948
 H868 H 0.26796 0.48860 0.73503
 C869 C 0.75083 -0.04202 0.24872
 C870 C 0.75807 -0.03451 0.26028
 C871 C 0.75703 -0.01881 0.26115
 C872 C 0.74953 -0.01041 0.25017
 C873 C 0.74274 -0.01830 0.23843
 C874 C 0.74294 -0.03404 0.23788
 C875 C 0.74871 0.00642 0.25097
 C876 C 0.73711 0.01438 0.24366
 C877 C 0.73649 0.03011 0.24404
 C878 C 0.74704 0.03799 0.25254
 C879 C 0.75841 0.03042 0.26026
 C880 C 0.75948 0.01475 0.25905
 H881 H 0.75128 -0.05415 0.24817
 H882 H 0.76188 -0.01332 0.27063
 H883 H 0.73739 -0.01235 0.22948
 H884 H 0.72830 0.00849 0.23777
 H885 H 0.74672 0.05015 0.25280
 H886 H 0.76872 0.00919 0.26457
 C887 C 0.75041 0.46040 0.74993
 C888 C 0.75695 0.46812 0.76175
 C889 C 0.75584 0.48383 0.76231
 C890 C 0.74888 0.49198 0.75086
 C891 C 0.74269 0.48390 0.73892
 C892 C 0.74308 0.46815 0.73857
 C893 C 0.74796 0.50880 0.75143
 C894 C 0.73629 0.51653 0.74405
 C895 C 0.73546 0.53226 0.74434
 C896 C 0.74596 0.54033 0.75274
 C897 C 0.75744 0.53296 0.76051
 C898 C 0.75865 0.51728 0.75946
 H899 H 0.75097 0.44826 0.74960
 H900 H 0.76017 0.48953 0.77191
 H901 H 0.73771 0.48975 0.72970
 H902 H 0.72759 0.51043 0.73820
 H903 H 0.74550 0.55248 0.75289
 H904 H 0.76791 0.51181 0.76505
 C905 C 0.25108 0.45971 0.24947
 C906 C 0.26096 0.46737 0.25886
 C907 C 0.26124 0.48313 0.25863
 C908 C 0.25090 0.49139 0.24994
 C909 C 0.24063 0.48326 0.24104
 C910 C 0.24109 0.46752 0.24034
 C911 C 0.25078 0.50832 0.25017
 C912 C 0.24417 0.51663 0.23857
 C913 C 0.24357 0.53238 0.23895
 C914 C 0.25043 0.54002 0.25062
 C915 C 0.25748 0.53218 0.26206
 C916 C 0.25725 0.51641 0.26198
 H917 H 0.25115 0.44755 0.24929
 H918 H 0.26949 0.48874 0.26543
 H919 H 0.23228 0.48896 0.23444
 H920 H 0.23963 0.51109 0.22898
 H921 H 0.25028 0.55218 0.25081
 H922 H 0.26195 0.51067 0.27138
 C923 C 0.74504 1.03870 0.74643
 C924 C 0.75657 1.03127 0.73877
 C925 C 0.75835 1.01573 0.74064
 C926 C 0.74813 1.00736 0.74938
 C927 C 0.73633 1.01513 0.75661
 C928 C 0.73499 1.03079 0.75551
 C929 C 0.74969 0.99064 0.75091
 C930 C 0.74378 0.98309 0.76334
 C931 C 0.74454 0.96741 0.76456
 C932 C 0.75207 0.95921 0.75364
 C933 C 0.75843 0.96640 0.74137
 C934 C 0.75692 0.98202 0.73992
 H935 H 0.74421 1.05081 0.74564
 H936 H 0.76769 1.01028 0.73515
 H937 H 0.72794 1.00912 0.76298
 H938 H 0.73866 0.98929 0.77226
 H939 H 0.75288 0.94712 0.75463
 H940 H 0.76112 0.98726 0.72998
 C941 C 0.75014 0.53948 0.24902
 C942 C 0.75774 0.53180 0.23780
 C943 C 0.75710 0.51605 0.23742
 C944 C 0.74974 0.50773 0.24863
 C945 C 0.74260 0.51590 0.26006
 C946 C 0.74235 0.53166 0.26004
 C947 C 0.74947 0.49075 0.24840
 C948 C 0.73923 0.48252 0.25733
 C949 C 0.73935 0.46677 0.25759
 C950 C 0.74892 0.45903 0.24798
 C951 C 0.75876 0.46676 0.23857
 C952 C 0.75943 0.48249 0.23925
 H953 H 0.75029 0.55163 0.24915
 H954 H 0.76224 0.51058 0.22809
 H955 H 0.73733 0.51030 0.26926
 H956 H 0.73116 0.48811 0.26433
 H957 H 0.74872 0.44686 0.24783
 H958 H 0.76768 0.48804 0.23239
 C959 C 0.25206 -0.03778 0.74820
 C960 C 0.25829 -0.03076 0.76059
 C961 C 0.25654 -0.01519 0.76235
 C962 C 0.24913 -0.00647 0.75157
 C963 C 0.24337 -0.01382 0.73901
 C964 C 0.24440 -0.02945 0.73748
 C965 C 0.24721 0.01015 0.75343
 C966 C 0.23511 0.01775 0.74657
 C967 C 0.23349 0.03336 0.74781
 C968 C 0.24355 0.04137 0.75675
 C969 C 0.25537 0.03408 0.76410
 C970 C 0.25741 0.01859 0.76206
 H971 H 0.25306 -0.04983 0.74697
 H972 H 0.26066 -0.01008 0.77236
 H973 H 0.23814 -0.00749 0.73024
 H974 H 0.22673 0.01161 0.74034
 H975 H 0.24252 0.05346 0.75764
 H976 H 0.26694 0.01323 0.76731
 C977 C 0.24830 0.24537 1.03825
 C978 C 0.24115 0.25730 1.03105
 C979 C 0.24280 0.25882 1.01575
 C980 C 0.25077 0.24801 1.00743
 C981 C 0.25749 0.23587 1.01498
 C982 C 0.25665 0.23472 1.03036
 C983 C 0.25197 0.24927 0.99099
 C984 C 0.26407 0.24252 0.98331
 C985 C 0.26490 0.24304 0.96788
 C986 C 0.25395 0.25113 0.96008
 C987 C 0.24203 0.25830 0.96742
 C988 C 0.24092 0.25704 0.98278
 H989 H 0.24772 0.24463 1.05015
 H990 H 0.23771 0.26842 1.01043
 H991 H 0.26324 0.22707 1.00901
 H992 H 0.27307 0.23694 0.98920
 H993 H 0.25465 0.25177 0.94819
 H994 H 0.23117 0.26189 0.98817
 C995 C 0.24881 0.74905 0.53771
 C996 C 0.24088 0.76018 0.53004
 C997 C 0.24079 0.75990 0.51460
 C998 C 0.24785 0.74818 0.50672
 C999 C 0.25547 0.73695 0.51477
 C1000 C 0.25627 0.73750 0.53019
 C1001 C 0.24711 0.74760 0.49022
 C1002 C 0.25831 0.74006 0.48196
 C1003 C 0.25725 0.73896 0.46657
 C1004 C 0.24540 0.74625 0.45929
 C1005 C 0.23436 0.75418 0.46715
 C1006 C 0.23506 0.75447 0.48257
 H1007 H 0.24912 0.74934 0.54962
 H1008 H 0.23532 0.76902 0.50884
 H1009 H 0.26057 0.72750 0.50922
 H1010 H 0.26783 0.73486 0.48737
 H1011 H 0.24501 0.74606 0.44737
 H1012 H 0.22597 0.75989 0.48849
 C1013 C 0.24886 0.75198 -0.03718
 C1014 C 0.25679 0.76298 -0.02933
 C1015 C 0.25728 0.76213 -0.01392
 C1016 C 0.25063 0.74998 -0.00627
 C1017 C 0.24298 0.73889 -0.01452
 C1018 C 0.24179 0.73999 -0.02990
 C1019 C 0.25186 0.74882 0.01016
 C1020 C 0.24098 0.74083 0.01846
 C1021 C 0.24241 0.73929 0.03378
 C1022 C 0.25436 0.74653 0.04100
 C1023 C 0.26509 0.75491 0.03312
 C1024 C 0.26400 0.75566 0.01773
 H1025 H 0.24826 0.75270 -0.04907
 H1026 H 0.26276 0.77114 -0.00799
 H1027 H 0.23819 0.72914 -0.00916
 H1028 H 0.23139 0.73565 0.01312
 H1029 H 0.25502 0.74601 0.05290
 H1030 H 0.27286 0.76144 0.01175
 C1031 C 0.24962 0.25004 0.46226
 C1032 C 0.25967 0.25930 0.46992
 C1033 C 0.26058 0.25811 0.48530
 C1034 C 0.25071 0.24855 0.49329
 C1035 C 0.24031 0.23973 0.48519
 C1036 C 0.24016 0.23999 0.46973
 C1037 C 0.25130 0.24777 0.50988
 C1038 C 0.24496 0.23549 0.51764
 C1039 C 0.24505 0.23495 0.53309
 C1040 C 0.25237 0.24634 0.54093
 C1041 C 0.25916 0.25845 0.53361
 C1042 C 0.25819 0.25932 0.51821
 H1043 H 0.24922 0.25060 0.45035
 H1044 H 0.26899 0.26483 0.49084
 H1045 H 0.23235 0.23242 0.49067
 H1046 H 0.24006 0.22607 0.51189
 H1047 H 0.25276 0.24581 0.55284
 H1048 H 0.26265 0.26926 0.51296
 C1049 C 0.74761 0.74491 1.03650
 C1050 C 0.73928 0.75590 1.02908
 C1051 C 0.73944 0.75618 1.01363
 C1052 C 0.74695 0.74491 1.00546
 C1053 C 0.75489 0.73372 1.01331
 C1054 C 0.75558 0.73389 1.02874
 C1055 C 0.74620 0.74463 0.98891
 C1056 C 0.75720 0.73693 0.98052
 C1057 C 0.75602 0.73587 0.96514
 C1058 C 0.74432 0.74347 0.95794
 C1059 C 0.73356 0.75164 0.96588
 C1060 C 0.73431 0.75183 0.98131
 H1061 H 0.74814 0.74513 1.04841
 H1062 H 0.73346 0.76513 1.00814
 H1063 H 0.76035 0.72455 1.00764
 H1064 H 0.76667 0.73151 0.98580
 H1065 H 0.74384 0.74332 0.94602
 H1066 H 0.72532 0.75742 0.98720
 C1067 C 0.74815 0.24588 0.53753
 C1068 C 0.73773 0.25449 0.52963
 C1069 C 0.73798 0.25410 0.51419
 C1070 C 0.74911 0.24586 0.50644
 C1071 C 0.75984 0.23773 0.51482
 C1072 C 0.75904 0.23724 0.53026
 C1073 C 0.74927 0.24549 0.48981
 C1074 C 0.75707 0.23407 0.48210
 C1075 C 0.75724 0.23363 0.46666
 C1076 C 0.74884 0.24418 0.45874
 C1077 C 0.74064 0.25539 0.46599
 C1078 C 0.74137 0.25634 0.48141
 H1079 H 0.74801 0.24616 0.54945
 H1080 H 0.72915 0.26006 0.50848
 H1081 H 0.76879 0.23150 0.50955
 H1082 H 0.76285 0.22518 0.48786
 H1083 H 0.74895 0.24390 0.44682
 H1084 H 0.73550 0.26550 0.48664
 C1085 C 0.74967 0.24945 -0.03892
 C1086 C 0.75830 0.25991 -0.03109
 C1087 C 0.75908 0.25879 -0.01570
 C1088 C 0.75221 0.24671 -0.00806
 C1089 C 0.74395 0.23607 -0.01639
 C1090 C 0.74223 0.23768 -0.03168
 C1091 C 0.75373 0.24526 0.00842
 C1092 C 0.74350 0.23642 0.01674
 C1093 C 0.74526 0.23464 0.03201
 C1094 C 0.75672 0.24259 0.03925
 C1095 C 0.76671 0.25185 0.03143
 C1096 C 0.76548 0.25272 0.01606
 H1097 H 0.74912 0.25017 -0.05081
 H1098 H 0.76498 0.26757 -0.00988
 H1099 H 0.73871 0.22650 -0.01117
 H1100 H 0.73413 0.23074 0.01154
 H1101 H 0.75752 0.24192 0.05113
 H1102 H 0.77395 0.25915 0.01023
 C1103 C 0.74812 0.74929 0.46296
 C1104 C 0.75512 0.76101 0.47063
 C1105 C 0.75474 0.76100 0.48608
 C1106 C 0.74822 0.74896 0.49403
 C1107 C 0.74159 0.73711 0.48593
 C1108 C 0.74117 0.73741 0.47049
 C1109 C 0.74842 0.74871 0.51061
 C1110 C 0.73804 0.73981 0.51869
 C1111 C 0.73862 0.73912 0.53413
 C1112 C 0.74889 0.74826 0.54166
 C1113 C 0.75892 0.75763 0.53402
 C1114 C 0.75903 0.75738 0.51858
 H1115 H 0.74811 0.74940 0.45104
 H1116 H 0.75942 0.77062 0.49169
 H1117 H 0.73695 0.72738 0.49142
 H1118 H 0.72952 0.73320 0.51316
 H1119 H 0.74907 0.74810 0.55358
 H1120 H 0.76738 0.76414 0.51296
 C1121 C 1.04221 0.25253 0.25157
 C1122 C 1.03432 0.24472 0.26252
 C1123 C 1.01846 0.24535 0.26281
 C1124 C 1.01028 0.25302 0.25176
 C1125 C 1.01862 0.26039 0.24056
 C1126 C 1.03451 0.26066 0.24074
 C1127 C 0.99324 0.25358 0.25209
 C1128 C 0.98527 0.26492 0.24445
 C1129 C 0.96940 0.26540 0.24453
 C1130 C 0.96135 0.25501 0.25305
 C1131 C 0.96888 0.24395 0.26115
 C1132 C 0.98471 0.24294 0.26020
 H1133 H 1.05446 0.25204 0.25127
 H1134 H 1.01273 0.24004 0.27193
 H1135 H 1.01296 0.26619 0.23172
 H1136 H 0.99120 0.27368 0.23858
 H1137 H 0.94909 0.25527 0.25310
 H1138 H 0.99019 0.23390 0.26601
 C1139 C 0.54286 0.25286 0.75047
 C1140 C 0.53491 0.24564 0.76182
 C1141 C 0.51903 0.24606 0.76184
 C1142 C 0.51095 0.25290 0.75024
 C1143 C 0.51929 0.25969 0.73876
 C1144 C 0.53517 0.26010 0.73903
 C1145 C 0.49396 0.25307 0.75019
 C1146 C 0.48595 0.26428 0.74245
 C1147 C 0.47008 0.26442 0.74223
 C1148 C 0.46209 0.25372 0.75044
 C1149 C 0.46970 0.24273 0.75858
 C1150 C 0.48556 0.24215 0.75802
 H1151 H 0.55511 0.25287 0.75056
 H1152 H 0.51313 0.24126 0.77115
 H1153 H 0.51359 0.26456 0.72939
 H1154 H 0.49189 0.27318 0.73676
 H1155 H 0.44983 0.25370 0.75025
 H1156 H 0.49121 0.23323 0.76388
 C1157 C -0.04190 0.25476 0.74666
 C1158 C -0.03400 0.26521 0.75524
 C1159 C -0.01812 0.26484 0.75536
 C1160 C -0.01006 0.25365 0.74762
 C1161 C -0.01837 0.24304 0.73940
 C1162 C -0.03420 0.24382 0.73853
 C1163 C 0.00689 0.25309 0.74811
 C1164 C 0.01529 0.24668 0.73647
 C1165 C 0.03115 0.24593 0.73701
 C1166 C 0.03875 0.25223 0.74904
 C1167 C 0.03074 0.25899 0.76057
 C1168 C 0.01487 0.25904 0.76022
 H1169 H -0.05416 0.25485 0.74660
 H1170 H -0.01216 0.27349 0.76136
 H1171 H -0.01264 0.23417 0.73352
 H1172 H 0.00964 0.24249 0.72676
 H1173 H 0.05099 0.25195 0.74939
 H1174 H 0.00886 0.26360 0.76957
 C1175 C 0.45884 0.25057 0.24938
 C1176 C 0.46678 0.25739 0.26090
 C1177 C 0.48265 0.25707 0.26083
 C1178 C 0.49080 0.25087 0.24891
 C1179 C 0.48242 0.24449 0.23722
 C1180 C 0.46654 0.24393 0.23759
 C1181 C 0.50786 0.25105 0.24868
 C1182 C 0.51610 0.24105 0.23963
 C1183 C 0.53197 0.24150 0.23905
 C1184 C 0.53980 0.25127 0.24839
 C1185 C 0.53203 0.26091 0.25790
 C1186 C 0.51615 0.26118 0.25757
 H1187 H 0.44659 0.25048 0.24957
 H1188 H 0.48843 0.26155 0.27032
 H1189 H 0.48803 0.24013 0.22757
 H1190 H 0.51037 0.23288 0.23286
 H1191 H 0.55206 0.25133 0.24830
 H1192 H 0.51046 0.26925 0.26447
 C1193 C 1.04358 0.75626 0.75228
 C1194 C 1.03606 0.74486 0.76001
 C1195 C 1.02026 0.74359 0.75880
 C1196 C 1.01178 0.75420 0.75071
 C1197 C 1.01969 0.76585 0.74343
 C1198 C 1.03554 0.76668 0.74381
 C1199 C 0.99481 0.75324 0.74997
 C1200 C 0.98674 0.75990 0.73825
 C1201 C 0.97086 0.75955 0.73782
 C1202 C 0.96295 0.75175 0.74879
 C1203 C 0.97062 0.74473 0.76037
 C1204 C 0.98645 0.74580 0.76108
 H1205 H 1.05582 0.75674 0.75254
 H1206 H 1.01473 0.73434 0.76433
 H1207 H 1.01365 0.77453 0.73757
 H1208 H 0.99266 0.76527 0.72924
 H1209 H 0.95071 0.75123 0.74837
 H1210 H 0.99206 0.74107 0.77056
 C1211 C 0.54235 0.75075 0.24968
 C1212 C 0.53466 0.74379 0.26135
 C1213 C 0.51880 0.74471 0.26199
 C1214 C 0.51050 0.75196 0.25078
 C1215 C 0.51858 0.75852 0.23898
 C1216 C 0.53445 0.75830 0.23856
 C1217 C 0.49355 0.75284 0.25144
 C1218 C 0.48574 0.76466 0.24439
 C1219 C 0.46988 0.76546 0.24474
 C1220 C 0.46176 0.75473 0.25280
 C1221 C 0.46918 0.74313 0.26027
 C1222 C 0.48500 0.74199 0.25920
 H1223 H 0.55459 0.75034 0.24927
 H1224 H 0.51309 0.74002 0.27147
 H1225 H 0.51263 0.76368 0.22991
 H1226 H 0.49187 0.77350 0.23879
 H1227 H 0.44951 0.75516 0.25297
 H1228 H 0.49052 0.73266 0.26456
 C1229 C -0.04210 0.74976 0.25157
 C1230 C -0.03414 0.75723 0.26270
 C1231 C -0.01826 0.75764 0.26212
 C1232 C -0.01028 0.75133 0.25016
 C1233 C -0.01864 0.74417 0.23894
 C1234 C -0.03448 0.74310 0.23972
 C1235 C 0.00665 0.75243 0.24929
 C1236 C 0.01520 0.74171 0.24141
 C1237 C 0.03099 0.74308 0.24013
 C1238 C 0.03839 0.75478 0.24750
 C1239 C 0.03026 0.76537 0.25568
 C1240 C 0.01442 0.76434 0.25623
 H1241 H -0.05433 0.74922 0.25208
 H1242 H -0.01225 0.76278 0.27116
 H1243 H -0.01299 0.73971 0.22934
 H1244 H 0.00969 0.73232 0.23612
 H1245 H 0.05063 0.75538 0.24717
 H1246 H 0.00825 0.77306 0.26192
 C1247 C 0.45606 0.75392 0.74747
 C1248 C 0.46355 0.76230 0.75827
 C1249 C 0.47945 0.76235 0.75855
 C1250 C 0.48797 0.75501 0.74750
 C1251 C 0.47999 0.74714 0.73644
 C1252 C 0.46415 0.74622 0.73660
 C1253 C 0.50500 0.75575 0.74732
 C1254 C 0.51361 0.74495 0.73959
 C1255 C 0.52942 0.74609 0.73858
 C1256 C 0.53687 0.75752 0.74627
 C1257 C 0.52875 0.76808 0.75447
 C1258 C 0.51288 0.76738 0.75465
 H1259 H 0.44382 0.75318 0.74769
 H1260 H 0.48501 0.76836 0.76732
 H1261 H 0.48589 0.74192 0.72738
 H1262 H 0.50818 0.73565 0.73410
 H1263 H 0.54913 0.75794 0.74615
 H1264 H 0.50686 0.77619 0.76033
 C1265 C 0.45413 0.28825 0.28677
 C1266 C 0.44061 0.28225 0.29229
 C1267 C 0.43625 0.26767 0.28844
 C1268 C 0.44508 0.25930 0.27868
 C1269 C 0.40213 0.31530 0.32216
 C1270 C 0.46300 0.27987 0.27703
 C1271 C 0.43067 0.29139 0.30106
 C1272 C 0.42198 0.29903 0.30800
 C1273 C 0.41143 0.30789 0.31575
 C1274 C 0.45839 0.26543 0.27264
 H1275 H 0.45757 0.29955 0.28963
 H1276 H 0.42581 0.26292 0.29267
 H1277 H 0.44137 0.24813 0.27564
 H1278 H 0.47311 0.28493 0.27244
 C1279 C 0.44953 0.78020 0.79378
 C1280 C 0.43687 0.78809 0.78871
 C1281 C 0.43318 0.78775 0.77376
 C1282 C 0.44196 0.77947 0.76393
 C1283 C 0.39918 0.81858 0.82198
 C1284 C 0.45838 0.77187 0.78392
 C1285 C 0.42735 0.79638 0.79868
 C1286 C 0.41887 0.80336 0.80649
 C1287 C 0.40843 0.81157 0.81506
 C1288 C 0.45459 0.77133 0.76890
 H1289 H 0.45248 0.78037 0.80535
 H1290 H 0.42344 0.79384 0.76969
 H1291 H 0.43890 0.77949 0.75239
 H1292 H 0.46797 0.76565 0.78808
 C1293 C -0.04712 0.28761 0.78836
 C1294 C -0.06051 0.29396 0.78303
 C1295 C -0.06462 0.29182 0.76831
 C1296 C -0.05567 0.28296 0.75909
 C1297 C -0.10004 0.32123 0.81699
 C1298 C -0.03813 0.27874 0.77914
 C1299 C -0.07057 0.30188 0.79277
 C1300 C -0.07947 0.30818 0.80070
 C1301 C -0.09037 0.31529 0.80966
 C1302 C -0.04249 0.27607 0.76449
 H1303 H -0.04386 0.28916 0.79975
 H1304 H -0.07495 0.29670 0.76406
 H1305 H -0.05920 0.28129 0.74781
 H1306 H -0.02813 0.27347 0.78365
 C1307 C -0.04738 0.78818 0.28826
 C1308 C -0.06068 0.78192 0.29401
 C1309 C -0.06463 0.76715 0.29046
 C1310 C -0.05563 0.75884 0.28078
 C1311 C -0.09991 0.81460 0.32345
 C1312 C -0.03835 0.77989 0.27858
 C1313 C -0.07083 0.79095 0.30267
 C1314 C -0.07971 0.79850 0.30952
 C1315 C -0.09046 0.80725 0.31716
 C1316 C -0.04257 0.76524 0.27447
 H1317 H -0.04424 0.79963 0.29088
 H1318 H -0.07489 0.76218 0.29485
 H1319 H -0.05906 0.74752 0.27799
 H1320 H -0.02845 0.78517 0.27379
 C1321 C 0.54726 0.71241 0.28680
 C1322 C 0.56131 0.71781 0.29155
 C1323 C 0.56614 0.73213 0.28726
 C1324 C 0.55720 0.74083 0.27790
 C1325 C 0.60001 0.68441 0.32081
 C1326 C 0.53828 0.72111 0.27743
 C1327 C 0.57124 0.70841 0.30007
 C1328 C 0.57998 0.70067 0.30685
 C1329 C 0.59062 0.69179 0.31447
 C1330 C 0.54331 0.73530 0.27263
 H1331 H 0.54342 0.70132 0.29002
 H1332 H 0.57698 0.73644 0.29088
 H1333 H 0.56127 0.75180 0.27459
 H1334 H 0.52770 0.71650 0.27346
 C1335 C 0.56547 0.23461 0.78898
 C1336 C 0.56081 0.22014 0.79294
 C1337 C 0.54715 0.21442 0.78755
 C1338 C 0.53840 0.22296 0.77785
 C1339 C 0.59929 0.18644 0.82197
 C1340 C 0.55675 0.24317 0.77929
 C1341 C 0.57063 0.21083 0.80164
 C1342 C 0.57930 0.20306 0.80845
 C1343 C 0.58990 0.19404 0.81593
 C1344 C 0.54328 0.23732 0.77338
 H1345 H 0.57603 0.23915 0.79308
 H1346 H 0.54347 0.20320 0.79048
 H1347 H 0.52816 0.21810 0.77338
 H1348 H 0.56069 0.25426 0.77623
 C1349 C 1.06511 0.73062 0.78723
 C1350 C 1.06250 0.71513 0.78694
 C1351 C 1.05094 0.70929 0.77809
 C1352 C 1.04212 0.71893 0.76944
 C1353 C 1.10018 0.68235 0.81802
 C1354 C 1.05637 0.74022 0.77860
 C1355 C 1.07209 0.70538 0.79545
 C1356 C 1.08058 0.69771 0.80260
 C1357 C 1.09098 0.68924 0.81095
 C1358 C 1.04486 0.73449 0.76951
 H1359 H 1.07400 0.73527 0.79405
 H1360 H 1.04886 0.69731 0.77774
 H1361 H 1.03342 0.71419 0.76246
 H1362 H 1.05858 0.75218 0.77906
 C1363 C 1.04691 0.21177 0.28589
 C1364 C 1.06045 0.21727 0.29178
 C1365 C 1.06495 0.23204 0.28885
 C1366 C 1.05618 0.24117 0.27974
 C1367 C 1.09828 0.18316 0.32121
 C1368 C 1.03809 0.22090 0.27679
 C1369 C 1.07017 0.20760 0.30020
 C1370 C 1.07870 0.19966 0.30699
 C1371 C 1.08909 0.19061 0.31472
 C1372 C 1.04277 0.23561 0.27342
 H1373 H 1.04337 0.20032 0.28803
 H1374 H 1.07541 0.23641 0.29336
 H1375 H 1.05997 0.25250 0.27746
 H1376 H 1.02791 0.21629 0.27193
 C1377 C 0.56629 0.27166 0.71254
 C1378 C 0.56173 0.28620 0.70877
 C1379 C 0.54798 0.29180 0.71406
 C1380 C 0.53903 0.28307 0.72347
 C1381 C 0.60002 0.31943 0.67863
 C1382 C 0.55737 0.26292 0.72195
 C1383 C 0.57161 0.29560 0.70015
 C1384 C 0.58025 0.30337 0.69323
 C1385 C 0.59075 0.31221 0.68533
 C1386 C 0.54378 0.26863 0.72774
 H1387 H 0.57689 0.26721 0.70847
 H1388 H 0.54437 0.30306 0.71124
 H1389 H 0.52871 0.28782 0.72787
 H1390 H 0.56121 0.25177 0.72487
 C1391 C 0.54747 0.78954 0.21310
 C1392 C 0.56084 0.78349 0.20737
 C1393 C 0.56499 0.76879 0.21099
 C1394 C 0.55608 0.76034 0.22067
 C1395 C 0.59951 0.81618 0.17705
 C1396 C 0.53854 0.78111 0.22279
 C1397 C 0.57083 0.79261 0.19857
 C1398 C 0.57956 0.80019 0.19155
 C1399 C 0.59017 0.80892 0.18365
 C1400 C 0.54292 0.76652 0.22692
 H1401 H 0.54418 0.80093 0.21042
 H1402 H 0.57531 0.76399 0.20661
 H1403 H 0.55963 0.74907 0.22347
 H1404 H 0.52855 0.78623 0.22753
 C1405 C 1.06428 0.28667 0.22490
 C1406 C 1.06057 0.28675 0.20995
 C1407 C 1.04805 0.27853 0.20499
 C1408 C 1.03939 0.27011 0.21497
 C1409 C 1.09859 0.31715 0.17692
 C1410 C 1.05569 0.27830 0.23484
 C1411 C 1.07001 0.29502 0.19988
 C1412 C 1.07854 0.30201 0.19209
 C1413 C 1.08913 0.31019 0.18365
 C1414 C 1.04323 0.26980 0.22999
 H1415 H 1.07392 0.29302 0.22886
 H1416 H 1.04509 0.27850 0.19342
 H1417 H 1.02991 0.26361 0.21091
 H1418 H 1.05877 0.27852 0.24637
 C1419 C 1.04867 0.78994 0.71121
 C1420 C 1.06185 0.79652 0.71682
 C1421 C 1.06575 0.79430 0.73158
 C1422 C 1.05682 0.78512 0.74057
 C1423 C 1.10162 0.82384 0.68302
 C1424 C 1.03971 0.78075 0.72020
 C1425 C 1.07199 0.80460 0.70725
 C1426 C 1.08095 0.81095 0.69938
 C1427 C 1.09191 0.81801 0.69041
 C1428 C 1.04389 0.77797 0.73488
 H1429 H 1.04558 0.79154 0.69979
 H1430 H 1.07592 0.79935 0.73604
 H1431 H 1.06021 0.78336 0.75189
 H1432 H 1.02990 0.77529 0.71547
 C1433 C 0.45226 0.71316 0.71296
 C1434 C 0.43865 0.71841 0.70703
 C1435 C 0.43390 0.73307 0.71002
 C1436 C 0.44247 0.74230 0.71923
 C1437 C 0.40064 0.68400 0.67802
 C1438 C 0.46088 0.72240 0.72217
 C1439 C 0.42904 0.70860 0.69860
 C1440 C 0.42050 0.70059 0.69187
 C1441 C 0.40999 0.69150 0.68429
 C1442 C 0.45591 0.73698 0.72562
 H1443 H 0.45602 0.70180 0.71078
 H1444 H 0.42340 0.73727 0.70548
 H1445 H 0.43847 0.75354 0.72153
 H1446 H 0.47112 0.71796 0.72704
 C1447 C 0.45354 0.21349 0.21133
 C1448 C 0.43978 0.21937 0.20638
 C1449 C 0.43530 0.23373 0.21081
 C1450 C 0.44429 0.24200 0.22051
 C1451 C 0.40119 0.18608 0.17681
 C1452 C 0.46257 0.22175 0.22102
 C1453 C 0.42975 0.21031 0.19761
 C1454 C 0.42103 0.20266 0.19069
 C1455 C 0.41047 0.19370 0.18304
 C1456 C 0.45789 0.23598 0.22596
 H1457 H 0.45708 0.20235 0.20803
 H1458 H 0.42466 0.23839 0.20706
 H1459 H 0.44049 0.25299 0.22397
 H1460 H 0.47289 0.21676 0.22515
 C1461 C -0.04716 0.71241 0.21352
 C1462 C -0.06121 0.71791 0.20893
 C1463 C -0.06605 0.73206 0.21365
 C1464 C -0.05711 0.74049 0.22324
 C1465 C -0.09970 0.68521 0.17861
 C1466 C -0.03817 0.72085 0.22313
 C1467 C -0.07112 0.70878 0.20011
 C1468 C -0.07983 0.70122 0.19308
 C1469 C -0.09040 0.69251 0.18517
 C1470 C -0.04320 0.73486 0.22832
 H1471 H -0.04332 0.70145 0.20997
 H1472 H -0.07690 0.73643 0.21016
 H1473 H -0.06117 0.75135 0.22684
 H1474 H -0.02758 0.71617 0.22694
 C1475 C -0.04824 0.20820 0.72005
 C1476 C -0.06004 0.21384 0.71141
 C1477 C -0.06312 0.22923 0.71141
 C1478 C -0.05459 0.23894 0.72013
 C1479 C -0.09756 0.18057 0.68078
 C1480 C -0.03963 0.21793 0.72878
 C1481 C -0.06944 0.20396 0.70289
 C1482 C -0.07786 0.19617 0.69580
 C1483 C -0.08826 0.18755 0.68761
 C1484 C -0.04284 0.23339 0.72900
 H1485 H -0.04581 0.19628 0.72018
 H1486 H -0.07222 0.23372 0.70476
 H1487 H -0.05717 0.25082 0.71992
 H1488 H -0.03072 0.21335 0.73559
 C1489 C 0.27360 0.43773 0.28604
 C1490 C 0.28900 0.44101 0.28751
 C1491 C 0.29523 0.45331 0.28001
 C1492 C 0.28611 0.46215 0.27086
 C1493 C 0.32012 0.40244 0.31904
 C1494 C 0.26451 0.44649 0.27691
 C1495 C 0.29831 0.43129 0.29634
 C1496 C 0.30560 0.42261 0.30362
 C1497 C 0.31362 0.41192 0.31201
 C1498 C 0.27068 0.45868 0.26908
 H1499 H 0.26865 0.42826 0.29181
 H1500 H 0.30716 0.45593 0.28105
 H1501 H 0.29117 0.47142 0.26489
 H1502 H 0.25262 0.44370 0.27594
 C1503 C 0.27011 -0.06315 0.78509
 C1504 C 0.28418 -0.05816 0.79016
 C1505 C 0.28938 -0.04383 0.78630
 C1506 C 0.28071 -0.03467 0.77708
 C1507 C 0.31693 -0.09649 0.82044
 C1508 C 0.26145 -0.05404 0.77586
 C1509 C 0.29350 -0.06808 0.79876
 C1510 C 0.30113 -0.07674 0.80572
 C1511 C 0.30982 -0.08725 0.81368
 C1512 C 0.26677 -0.03980 0.77155
 H1513 H 0.26595 -0.07421 0.78804
 H1514 H 0.30027 -0.03987 0.79015
 H1515 H 0.28514 -0.02382 0.77385
 H1516 H 0.25065 -0.05819 0.77196
 C1517 C 0.76812 0.43734 0.78840
 C1518 C 0.78236 0.44233 0.79301
 C1519 C 0.78787 0.45622 0.78815
 C1520 C 0.77935 0.46490 0.77837
 C1521 C 0.81557 0.40429 0.82300
 C1522 C 0.75960 0.44597 0.77863
 C1523 C 0.79166 0.43270 0.80190
 C1524 C 0.79936 0.42416 0.80892
 C1525 C 0.80821 0.41366 0.81669
 C1526 C 0.76524 0.45971 0.77329
 H1527 H 0.76376 0.42660 0.79210
 H1528 H 0.79891 0.46016 0.79159
 H1529 H 0.78404 0.47536 0.77434
 H1530 H 0.74869 0.44179 0.77509
 C1531 C 0.77067 -0.06583 0.28575
 C1532 C 0.78514 -0.06093 0.28973
 C1533 C 0.79040 -0.04696 0.28482
 C1534 C 0.78137 -0.03810 0.27564
 C1535 C 0.81838 -0.09862 0.32024
 C1536 C 0.76164 -0.05702 0.27658
 C1537 C 0.79474 -0.07059 0.29831
 C1538 C 0.80255 -0.07907 0.30530
 C1539 C 0.81132 -0.08944 0.31335
 C1540 C 0.76699 -0.04316 0.27122
 H1541 H 0.76648 -0.07661 0.28951
 H1542 H 0.80160 -0.04306 0.28781
 H1543 H 0.78585 -0.02756 0.27158
 H1544 H 0.75054 -0.06112 0.27353
 C1545 C 0.26885 0.56317 0.71373
 C1546 C 0.28350 0.55866 0.70993
 C1547 C 0.28905 0.54489 0.71500
 C1548 C 0.28014 0.53587 0.72421
 C1549 C 0.31655 0.59770 0.68062
 C1550 C 0.25995 0.55420 0.72294
 C1551 C 0.29303 0.56861 0.70152
 C1552 C 0.30080 0.57739 0.69478
 C1553 C 0.30952 0.58814 0.68710
 C1554 C 0.26561 0.54058 0.72852
 H1555 H 0.26443 0.57379 0.70985
 H1556 H 0.30039 0.54131 0.71216
 H1557 H 0.28485 0.52553 0.72846
 H1558 H 0.24873 0.55803 0.72592
 C1559 C 0.29672 1.04497 0.22183
 C1560 C 0.29096 1.05745 0.21430
 C1561 C 0.27564 1.06109 0.21562
 C1562 C 0.26615 1.05251 0.22459
 C1563 C 0.32277 1.09540 0.18248
 C1564 C 0.28719 1.03631 0.23082
 C1565 C 0.30065 1.06693 0.20553
 C1566 C 0.30816 1.07545 0.19822
 C1567 C 0.31631 1.08600 0.18971
 C1568 C 0.27183 1.04013 0.23243
 H1569 H 0.30858 1.04206 0.22091
 H1570 H 0.27104 1.07069 0.20983
 H1571 H 0.25432 1.05557 0.22542
 H1572 H 0.29189 1.02689 0.23680
 C1573 C 0.79056 0.54463 0.21395
 C1574 C 0.78509 0.55830 0.20855
 C1575 C 0.77030 0.56276 0.21184
 C1576 C 0.76116 0.55385 0.22088
 C1577 C 0.81880 0.59688 0.17935
 C1578 C 0.78142 0.53568 0.22300
 C1579 C 0.79480 0.56819 0.20027
 C1580 C 0.80270 0.57690 0.19359
 C1581 C 0.81160 0.58751 0.18591
 C1582 C 0.76673 0.54035 0.22680
 H1583 H 0.80201 0.54109 0.21149
 H1584 H 0.76594 0.57331 0.20769
 H1585 H 0.74982 0.55763 0.22345
 H1586 H 0.78605 0.52541 0.22751
 C1587 C 0.76978 1.05947 0.71031
 C1588 C 0.78547 1.05752 0.71068
 C1589 C 0.79177 1.04659 0.71990
 C1590 C 0.78240 1.03779 0.72889
 C1591 C 0.81762 1.09621 0.68009
 C1592 C 0.76043 1.05074 0.71928
 C1593 C 0.79497 1.06729 0.70205
 C1594 C 0.80247 1.07598 0.69494
 C1595 C 0.81080 1.08668 0.68681
 C1596 C 0.76663 1.03992 0.72879
 H1597 H 0.76478 1.06789 0.70321
 H1598 H 0.80392 1.04504 0.72033
 H1599 H 0.78748 1.02962 0.73619
 H1600 H 0.74831 1.05248 0.71882
 C1601 C 0.70963 0.54451 0.28393
 C1602 C 0.71534 0.55797 0.28961
 C1603 C 0.73026 0.56224 0.28653
 C1604 C 0.73928 0.55336 0.27740
 C1605 C 0.68203 0.59663 0.31889
 C1606 C 0.71866 0.53559 0.27479
 C1607 C 0.70573 0.56787 0.29793
 C1608 C 0.69792 0.57659 0.30464
 C1609 C 0.68914 0.58723 0.31233
 C1610 C 0.73349 0.54009 0.27119
 H1611 H 0.69809 0.54111 0.28622
 H1612 H 0.73480 0.57262 0.29090
 H1613 H 0.75072 0.55701 0.27498
 H1614 H 0.71385 0.52551 0.27006
 C1615 C 0.70670 1.06046 0.76714
 C1616 C 0.70501 1.05721 0.78212
 C1617 C 0.71211 1.04459 0.78813
 C1618 C 0.72134 1.03555 0.77930
 C1619 C 0.67814 1.09760 0.81516
 C1620 C 0.71592 1.05146 0.75830
 C1621 C 0.69697 1.06753 0.79147
 C1622 C 0.69069 1.07664 0.79914
 C1623 C 0.68378 1.08777 0.80790
 C1624 C 0.72362 1.03910 0.76436
 H1625 H 0.70126 1.07020 0.76238
 H1626 H 0.71093 1.04201 0.79973
 H1627 H 0.72723 1.02621 0.78431
 H1628 H 0.71729 1.05435 0.74680
 C1629 C 0.21077 0.54435 0.78772
 C1630 C 0.21679 0.55771 0.79334
 C1631 C 0.23162 0.56190 0.78980
 C1632 C 0.24023 0.55306 0.78026
 C1633 C 0.18386 0.59680 0.82238
 C1634 C 0.21938 0.53547 0.77819
 C1635 C 0.20749 0.56770 0.80186
 C1636 C 0.19982 0.57651 0.80859
 C1637 C 0.19107 0.58727 0.81613
 C1638 C 0.23409 0.53993 0.77410
 H1639 H 0.19928 0.54103 0.79035
 H1640 H 0.23639 0.57222 0.79409
 H1641 H 0.25159 0.55666 0.77747
 H1642 H 0.21431 0.52549 0.77350
 C1643 C 0.20681 1.04606 0.28116
 C1644 C 0.21308 1.05801 0.28913
 C1645 C 0.22862 1.06088 0.28823
 C1646 C 0.23781 1.05209 0.27920
 C1647 C 0.18146 1.09689 0.31988
 C1648 C 0.21604 1.03720 0.27211
 C1649 C 0.20368 1.06783 0.29777
 C1650 C 0.19629 1.07659 0.30488
 C1651 C 0.18812 1.08736 0.31305
 C1652 C 0.23161 1.04029 0.27089
 H1653 H 0.19478 1.04377 0.28173
 H1654 H 0.23361 1.07006 0.29436
 H1655 H 0.24980 1.05458 0.27865
 H1656 H 0.21095 1.02824 0.26577
 C1657 C 0.73380 0.43767 0.71089
 C1658 C 0.71899 0.44149 0.70697
 C1659 C 0.71250 0.45465 0.71250
 C1660 C 0.72060 0.46370 0.72230
 C1661 C 0.68707 0.40234 0.67675
 C1662 C 0.74191 0.44668 0.72069
 C1663 C 0.71017 0.43135 0.69810
 C1664 C 0.70280 0.42249 0.69108
 C1665 C 0.69425 0.41176 0.68323
 C1666 C 0.73528 0.45963 0.72675
 H1667 H 0.73894 0.42751 0.70666
 H1668 H 0.70103 0.45768 0.70959
 H1669 H 0.71515 0.47352 0.72690
 H1670 H 0.75326 0.44338 0.72375
 C1671 C 0.71080 -0.04667 0.21324
 C1672 C 0.71683 -0.05977 0.20711
 C1673 C 0.73177 -0.06386 0.21020
 C1674 C 0.74050 -0.05517 0.21976
 C1675 C 0.68366 -0.09793 0.17707
 C1676 C 0.71953 -0.03794 0.22280
 C1677 C 0.70745 -0.06955 0.19843
 C1678 C 0.69972 -0.07816 0.19150
 C1679 C 0.69090 -0.08866 0.18366
 C1680 C 0.73438 -0.04228 0.22639
 H1681 H 0.69923 -0.04343 0.21097
 H1682 H 0.73654 -0.07398 0.20550
 H1683 H 0.75197 -0.05867 0.22216
 H1684 H 0.71447 -0.02816 0.22786
 C1685 C 0.20684 0.45378 0.21896
 C1686 C 0.21313 0.44183 0.21105
 C1687 C 0.22856 0.43868 0.21233
 C1688 C 0.23764 0.44723 0.22167
 C1689 C 0.18176 0.40354 0.17945
 C1690 C 0.21594 0.46241 0.22833
 C1691 C 0.20380 0.43225 0.20211
 C1692 C 0.19646 0.42365 0.19478
 C1693 C 0.18835 0.41301 0.18641
 C1694 C 0.23140 0.45907 0.22991
 H1695 H 0.19488 0.45627 0.21809
 H1696 H 0.23355 0.42948 0.20625
 H1697 H 0.24956 0.44456 0.22249
 H1698 H 0.21083 0.47140 0.23461
 C1699 C 0.21369 -0.04198 0.71121
 C1700 C 0.22044 -0.05450 0.70467
 C1701 C 0.23549 -0.05806 0.70789
 C1702 C 0.24358 -0.04949 0.71807
 C1703 C 0.18787 -0.09364 0.67537
 C1704 C 0.22176 -0.03338 0.72139
 C1705 C 0.21155 -0.06449 0.69576
 C1706 C 0.20403 -0.07330 0.68886
 C1707 C 0.19525 -0.08408 0.68137
 C1708 C 0.23667 -0.03727 0.72519
 H1709 H 0.20201 -0.03919 0.70886
 H1710 H 0.24082 -0.06775 0.70290
 H1711 H 0.25511 -0.05262 0.72065
 H1712 H 0.21609 -0.02414 0.72681
 C1713 C 0.27130 0.28868 0.44195
 C1714 C 0.28684 0.28991 0.44456
 C1715 C 0.29347 0.28160 0.45594
 C1716 C 0.28462 0.27187 0.46449
 C1717 C 0.31826 0.32143 0.40628
 C1718 C 0.26247 0.27896 0.45043
 C1719 C 0.29595 0.29908 0.43494
 C1720 C 0.30323 0.30647 0.42634
 C1721 C 0.31143 0.31474 0.41573
 C1722 C 0.26906 0.27029 0.46166
 H1723 H 0.26604 0.29504 0.43317
 H1724 H 0.30552 0.28242 0.45799
 H1725 H 0.29000 0.26525 0.47300
 H1726 H 0.25047 0.27812 0.44815
 C1727 C 0.28877 0.78828 -0.04203
 C1728 C 0.28257 0.79457 -0.05478
 C1729 C 0.26753 0.79150 -0.05853
 C1730 C 0.25888 0.78174 -0.04988
 C1731 C 0.31579 0.82358 -0.09350
 C1732 C 0.28013 0.77851 -0.03335
 C1733 C 0.29192 0.80318 -0.06465
 C1734 C 0.29965 0.80993 -0.07337
 C1735 C 0.30850 0.81742 -0.08403
 C1736 C 0.26520 0.77487 -0.03738
 H1737 H 0.30042 0.79052 -0.03906
 H1738 H 0.26262 0.79632 -0.06838
 H1739 H 0.24736 0.77930 -0.05315
 H1740 H 0.28534 0.77327 -0.02387
 C1741 C 0.76989 0.28828 -0.06014
 C1742 C 0.78516 0.29049 -0.05671
 C1743 C 0.79132 0.28364 -0.04422
 C1744 C 0.78237 0.27421 -0.03547
 C1745 C 0.81818 0.31991 -0.09536
 C1746 C 0.76093 0.27885 -0.05143
 C1747 C 0.79465 0.29896 -0.06659
 C1748 C 0.80239 0.30573 -0.07530
 C1749 C 0.81111 0.31342 -0.08594
 C1750 C 0.76717 0.27146 -0.03917
 H1751 H 0.76499 0.29354 -0.06977
 H1752 H 0.80315 0.28522 -0.04149
 H1753 H 0.78753 0.26855 -0.02620
 H1754 H 0.74922 0.27707 -0.05445
 C1755 C 0.76597 0.78861 0.44063
 C1756 C 0.78074 0.79239 0.44477
 C1757 C 0.78666 0.78687 0.45799
 C1758 C 0.77804 0.77719 0.46678
 C1759 C 0.81418 0.82138 0.40618
 C1760 C 0.75735 0.77891 0.44938
 C1761 C 0.79010 0.80100 0.43490
 C1762 C 0.79785 0.80776 0.42620
 C1763 C 0.80677 0.81525 0.41558
 C1764 C 0.76342 0.77284 0.46239
 H1765 H 0.76127 0.79282 0.43043
 H1766 H 0.79811 0.78967 0.46126
 H1767 H 0.78305 0.77256 0.47665
 H1768 H 0.74606 0.77590 0.44582
 C1769 C 0.71591 0.28890 0.54180
 C1770 C 0.70897 0.28364 0.55468
 C1771 C 0.71058 0.26859 0.55879
 C1772 C 0.71949 0.25893 0.55034
 C1773 C 0.68117 0.31881 0.59233
 C1774 C 0.72479 0.27924 0.53329
 C1775 C 0.70096 0.29379 0.56420
 C1776 C 0.69455 0.30203 0.57266
 C1777 C 0.68728 0.31130 0.58306
 C1778 C 0.72691 0.26423 0.53764
 H1779 H 0.71479 0.30055 0.53856
 H1780 H 0.70525 0.26439 0.56873
 H1781 H 0.72079 0.24739 0.55385
 H1782 H 0.73051 0.28365 0.52365
 C1783 C 0.72117 0.79210 1.04250
 C1784 C 0.71281 0.78684 1.05457
 C1785 C 0.71290 0.77156 1.05806
 C1786 C 0.72141 0.76156 1.04967
 C1787 C 0.68229 0.82036 1.09161
 C1788 C 0.72971 0.78207 1.03403
 C1789 C 0.70441 0.79699 1.06377
 C1790 C 0.69736 0.80488 1.07207
 C1791 C 0.68918 0.81349 1.08237
 C1792 C 0.73002 0.76670 1.03763
 H1793 H 0.72120 0.80393 1.03973
 H1794 H 0.70645 0.76737 1.06736
 H1795 H 0.72122 0.74977 1.05256
 H1796 H 0.73632 0.78635 1.02489
 C1797 C 0.22443 0.29353 1.04596
 C1798 C 0.21471 0.28798 1.05690
 C1799 C 0.21340 0.27249 1.05909
 C1800 C 0.22188 0.26257 1.05054
 C1801 C 0.18398 0.32139 1.09393
 C1802 C 0.23292 0.28359 1.03734
 C1803 C 0.20636 0.29801 1.06627
 C1804 C 0.19930 0.30587 1.07459
 C1805 C 0.19103 0.31449 1.08482
 C1806 C 0.23183 0.26800 1.03966
 H1807 H 0.22557 0.30551 1.04422
 H1808 H 0.20591 0.26807 1.06750
 H1809 H 0.22065 0.25063 1.05243
 H1810 H 0.24058 0.28808 1.02913
 C1811 C 0.22946 0.78773 0.55979
 C1812 C 0.21451 0.79087 0.55582
 C1813 C 0.20855 0.78488 0.54283
 C1814 C 0.21736 0.77537 0.53408
 C1815 C 0.18194 0.82087 0.59421
 C1816 C 0.23827 0.77823 0.55109
 C1817 C 0.20509 0.79947 0.56560
 C1818 C 0.19744 0.80636 0.57424
 C1819 C 0.18885 0.81421 0.58483
 C1820 C 0.23222 0.77170 0.53829
 H1821 H 0.23419 0.79233 0.56982
 H1822 H 0.19697 0.78721 0.53968
 H1823 H 0.21235 0.77039 0.52437
 H1824 H 0.24973 0.77577 0.55450
 C1825 C 0.26857 0.71094 0.56048
 C1826 C 0.28327 0.70737 0.55598
 C1827 C 0.28879 0.71283 0.54255
 C1828 C 0.27978 0.72219 0.53385
 C1829 C 0.31662 0.67824 0.59428
 C1830 C 0.25956 0.72030 0.55183
 C1831 C 0.29290 0.69887 0.56563
 C1832 C 0.30072 0.69210 0.57421
 C1833 C 0.30951 0.68451 0.58481
 C1834 C 0.26517 0.72626 0.53855
 H1835 H 0.26419 0.70677 0.57086
 H1836 H 0.30019 0.71019 0.53899
 H1837 H 0.28444 0.72673 0.52375
 H1838 H 0.24829 0.72307 0.55563
 C1839 C 0.26709 0.20577 1.05917
 C1840 C 0.28231 0.20317 1.05577
 C1841 C 0.28877 0.20995 1.04334
 C1842 C 0.28020 0.21970 1.03466
 C1843 C 0.31550 0.17470 1.09470
 C1844 C 0.25852 0.21554 1.05053
 C1845 C 0.29153 0.19458 1.06571
 C1846 C 0.29920 0.18789 1.07448
 C1847 C 0.30806 0.18057 1.08521
 C1848 C 0.26508 0.22287 1.03837
 H1849 H 0.26198 0.20059 1.06877
 H1850 H 0.30057 0.20808 1.04065
 H1851 H 0.28559 0.22531 1.02545
 H1852 H 0.24684 0.21762 1.05354
 C1853 C 0.76867 0.70711 1.05848
 C1854 C 0.78366 0.70451 1.05421
 C1855 C 0.78914 0.71065 1.04104
 C1856 C 0.77978 0.71972 1.03239
 C1857 C 0.81823 0.67680 1.09251
 C1858 C 0.75933 0.71619 1.04989
 C1859 C 0.79359 0.69640 1.06389
 C1860 C 0.80167 0.68997 1.07249
 C1861 C 0.81079 0.68277 1.08308
 C1862 C 0.76488 0.72284 1.03690
 H1863 H 0.76431 0.70241 1.06865
 H1864 H 0.80074 0.70877 1.03767
 H1865 H 0.78439 0.72482 1.02252
 H1866 H 0.74785 0.71827 1.05353
 C1867 C 0.77280 0.21008 0.55938
 C1868 C 0.78833 0.20957 0.55649
 C1869 C 0.79435 0.21780 0.54469
 C1870 C 0.78485 0.22667 0.53594
 C1871 C 0.82049 0.17897 0.59473
 C1872 C 0.76333 0.21893 0.55070
 C1873 C 0.79797 0.20100 0.56609
 C1874 C 0.80551 0.19391 0.57468
 C1875 C 0.81379 0.18576 0.58528
 C1876 C 0.76925 0.22745 0.53898
 H1877 H 0.76801 0.20376 0.56846
 H1878 H 0.80637 0.21753 0.54238
 H1879 H 0.78973 0.23319 0.52705
 H1880 H 0.75134 0.21911 0.55317
 C1881 C 0.73085 0.71007 0.44019
 C1882 C 0.71614 0.70598 0.44431
 C1883 C 0.71007 0.71125 0.45756
 C1884 C 0.71848 0.72099 0.46644
 C1885 C 0.68343 0.67677 0.40550
 C1886 C 0.73926 0.71981 0.44902
 C1887 C 0.70698 0.69729 0.43438
 C1888 C 0.69939 0.69047 0.42564
 C1889 C 0.69067 0.68293 0.41496
 C1890 C 0.73305 0.72562 0.46209
 H1891 H 0.73566 0.70606 0.42995
 H1892 H 0.69866 0.70821 0.46081
 H1893 H 0.71336 0.72541 0.47636
 H1894 H 0.75051 0.72305 0.44548
 C1895 C 0.72488 0.20181 -0.04692
 C1896 C 0.71548 0.20760 -0.05795
 C1897 C 0.71443 0.22313 -0.05995
 C1898 C 0.72293 0.23284 -0.05121
 C1899 C 0.68507 0.17572 -0.09652
 C1900 C 0.73340 0.21156 -0.03810
 C1901 C 0.70725 0.19780 -0.06767
 C1902 C 0.70030 0.19023 -0.07635
 C1903 C 0.69211 0.18209 -0.08703
 C1904 C 0.73265 0.22718 -0.04030
 H1905 H 0.72580 0.18980 -0.04530
 H1906 H 0.70717 0.22773 -0.06842
 H1907 H 0.72194 0.24482 -0.05301
 H1908 H 0.74088 0.20688 -0.02986
 C1909 C 0.20958 0.71495 -0.04253
 C1910 C 0.21494 0.71018 -0.05626
 C1911 C 0.22948 0.71429 -0.06087
 C1912 C 0.23845 0.72352 -0.05204
 C1913 C 0.18170 0.68104 -0.09476
 C1914 C 0.21856 0.72419 -0.03365
 C1915 C 0.20534 0.70177 -0.06604
 C1916 C 0.19754 0.69506 -0.07470
 C1917 C 0.18879 0.68745 -0.08533
 C1918 C 0.23297 0.72882 -0.03847
 H1919 H 0.19832 0.71185 -0.03886
 H1920 H 0.23376 0.71063 -0.07146
 H1921 H 0.24959 0.72672 -0.05594
 H1922 H 0.21401 0.72819 -0.02331
 C1923 C 0.22750 0.21263 0.44035
 C1924 C 0.21230 0.21039 0.44403
 C1925 C 0.20620 0.21749 0.45645
 C1926 C 0.21527 0.22697 0.46503
 C1927 C 0.18073 0.17858 0.40628
 C1928 C 0.23653 0.22209 0.44886
 C1929 C 0.20300 0.20126 0.43461
 C1930 C 0.19565 0.19383 0.42614
 C1931 C 0.18747 0.18543 0.41565
 C1932 C 0.23049 0.22950 0.46120
 H1933 H 0.23235 0.20720 0.43078
 H1934 H 0.19442 0.21587 0.45937
 H1935 H 0.21030 0.23260 0.47442
 H1936 H 0.24828 0.22362 0.44577
 C1937 C 0.27230 0.43861 0.71272
 C1938 C 0.28769 0.44207 0.71153
 C1939 C 0.29375 0.45404 0.71960
 C1940 C 0.28444 0.46241 0.72899
 C1941 C 0.31991 0.40456 0.67998
 C1942 C 0.26301 0.44691 0.72209
 C1943 C 0.29722 0.43278 0.70252
 C1944 C 0.30476 0.42440 0.69515
 C1945 C 0.31311 0.41396 0.68681
 C1946 C 0.26900 0.45879 0.73044
 H1947 H 0.26750 0.42937 0.70654
 H1948 H 0.30567 0.45675 0.71880
 H1949 H 0.28936 0.47143 0.73537
 H1950 H 0.25112 0.44403 0.72281
 C1951 C 0.26488 0.93637 0.21084
 C1952 C 0.27938 0.94050 0.20610
 C1953 C 0.28579 0.95398 0.21102
 C1954 C 0.27797 0.96300 0.22106
 C1955 C 0.31197 0.90093 0.17724
 C1956 C 0.25706 0.94536 0.22088
 C1957 C 0.28816 0.93028 0.19729
 C1958 C 0.29561 0.92134 0.19047
 C1959 C 0.30443 0.91048 0.18309
 C1960 C 0.26367 0.95859 0.22638
 H1961 H 0.25982 0.92596 0.20712
 H1962 H 0.29704 0.95725 0.20750
 H1963 H 0.28340 0.97305 0.22520
 H1964 H 0.24599 0.94178 0.22463
 C1965 C 0.79221 0.45275 0.21611
 C1966 C 0.78552 0.44092 0.20831
 C1967 C 0.77009 0.43793 0.21005
 C1968 C 0.76141 0.44651 0.21972
 C1969 C 0.81646 0.40207 0.17695
 C1970 C 0.78350 0.46141 0.22580
 C1971 C 0.79448 0.43123 0.19911
 C1972 C 0.80162 0.42252 0.19171
 C1973 C 0.80968 0.41173 0.18349
 C1974 C 0.76804 0.45823 0.22784
 H1975 H 0.80418 0.45510 0.21491
 H1976 H 0.76479 0.42880 0.20409
 H1977 H 0.74948 0.44396 0.22090
 H1978 H 0.78892 0.47030 0.23198
 C1979 C 0.76995 0.93434 0.71633
 C1980 C 0.78413 0.93921 0.71139
 C1981 C 0.78950 0.95341 0.71549
 C1982 C 0.78088 0.96251 0.72483
 C1983 C 0.81706 0.90086 0.68121
 C1984 C 0.76134 0.94340 0.72568
 C1985 C 0.79340 0.92928 0.70273
 C1986 C 0.80104 0.92060 0.69577
 C1987 C 0.80980 0.91010 0.68786
 C1988 C 0.76684 0.95748 0.73025
 H1989 H 0.76566 0.92340 0.71319
 H1990 H 0.80047 0.95729 0.71174
 H1991 H 0.78544 0.97325 0.72825
 H1992 H 0.75046 0.93933 0.72947
 C1993 C 0.71191 0.54501 0.71183
 C1994 C 0.70515 0.55797 0.71749
 C1995 C 0.70737 0.56187 0.73224
 C1996 C 0.71674 0.55315 0.74117
 C1997 C 0.67668 0.59722 0.68447
 C1998 C 0.72128 0.53624 0.72076
 C1999 C 0.69680 0.56790 0.70802
 C2000 C 0.69020 0.57672 0.70029
 C2001 C 0.68281 0.58757 0.69158
 C2002 C 0.72406 0.54042 0.73544
 H2003 H 0.71031 0.54192 0.70040
 H2004 H 0.70219 0.57188 0.73674
 H2005 H 0.71851 0.55652 0.75249
 H2006 H 0.72688 0.52658 0.71600
 C2007 C 0.71379 0.04346 0.21119
 C2008 C 0.70716 0.05652 0.21679
 C2009 C 0.70912 0.06027 0.23162
 C2010 C 0.71814 0.05132 0.24068
 C2011 C 0.67973 0.09614 0.18328
 C2012 C 0.72280 0.03447 0.22025
 C2013 C 0.69920 0.06666 0.20720
 C2014 C 0.69288 0.07559 0.19936
 C2015 C 0.68575 0.08650 0.19050
 C2016 C 0.72534 0.03850 0.23501
 H2017 H 0.71238 0.04048 0.19972
 H2018 H 0.70402 0.07034 0.23608
 H2019 H 0.71974 0.05459 0.25205
 H2020 H 0.72832 0.02475 0.21555
 C2021 C 0.23270 0.56343 0.21244
 C2022 C 0.21811 0.55898 0.20836
 C2023 C 0.21230 0.54527 0.21338
 C2024 C 0.22087 0.53627 0.22285
 C2025 C 0.18463 0.59792 0.17963
 C2026 C 0.24126 0.55448 0.22191
 C2027 C 0.20879 0.56901 0.19989
 C2028 C 0.20105 0.57781 0.19321
 C2029 C 0.19210 0.58850 0.18576
 C2030 C 0.23532 0.54094 0.22747
 H2031 H 0.23731 0.57402 0.20861
 H2032 H 0.20100 0.54174 0.21034
 H2033 H 0.21594 0.52598 0.22706
 H2034 H 0.25243 0.55826 0.22511
 C2035 C 0.20976 0.04667 0.71564
 C2036 C 0.20256 0.05920 0.72172
 C2037 C 0.20452 0.06257 0.73663
 C2038 C 0.21407 0.05377 0.74532
 C2039 C 0.17516 0.09867 0.68806
 C2040 C 0.21931 0.03784 0.72431
 C2041 C 0.19423 0.06933 0.71244
 C2042 C 0.18778 0.07825 0.70469
 C2043 C 0.18076 0.08910 0.69568
 C2044 C 0.22184 0.04151 0.73917
 H2045 H 0.20838 0.04401 0.70408
 H2046 H 0.19902 0.07225 0.74144
 H2047 H 0.21562 0.05674 0.75677
 H2048 H 0.22526 0.02858 0.71922
 C2049 C 0.26775 0.56268 0.28935
 C2050 C 0.28254 0.55861 0.29309
 C2051 C 0.28867 0.54525 0.28762
 C2052 C 0.28024 0.53626 0.27804
 C2053 C 0.31561 0.59790 0.32190
 C2054 C 0.25932 0.55372 0.27976
 C2055 C 0.29172 0.56873 0.30164
 C2056 C 0.29936 0.57760 0.30835
 C2057 C 0.30820 0.58840 0.31580
 C2058 C 0.26559 0.54059 0.27374
 H2059 H 0.26288 0.57299 0.29353
 H2060 H 0.30014 0.54203 0.29038
 H2061 H 0.28541 0.52629 0.27346
 H2062 H 0.24800 0.55724 0.27680
 C2063 C 0.26876 0.06225 0.79241
 C2064 C 0.28446 0.06056 0.79162
 C2065 C 0.29073 0.04982 0.78216
 C2066 C 0.28129 0.04095 0.77336
 C2067 C 0.31762 0.09909 0.82121
 C2068 C 0.25934 0.05345 0.78362
 C2069 C 0.29404 0.07037 0.80006
 C2070 C 0.30172 0.07905 0.80696
 C2071 C 0.31039 0.08967 0.81480
 C2072 C 0.26550 0.04282 0.77388
 H2073 H 0.26379 0.07052 0.79969
 H2074 H 0.30288 0.04849 0.78140
 H2075 H 0.28634 0.03295 0.76586
 H2076 H 0.24721 0.05499 0.78439
 C2077 C 0.77221 0.56230 0.78701
 C2078 C 0.78780 0.55975 0.78649
 C2079 C 0.79353 0.54805 0.77784
 C2080 C 0.78367 0.53909 0.76955
 C2081 C 0.82131 0.59822 0.81587
 C2082 C 0.76238 0.55342 0.77874
 C2083 C 0.79780 0.56956 0.79451
 C2084 C 0.80566 0.57824 0.80123
 C2085 C 0.81433 0.58885 0.80911
 C2086 C 0.76800 0.54182 0.76978
 H2087 H 0.76764 0.57129 0.79370
 H2088 H 0.80559 0.54598 0.77735
 H2089 H 0.78833 0.53030 0.76269
 H2090 H 0.75034 0.55563 0.77932
 C2091 C 0.79452 0.04492 0.27796
 C2092 C 0.78880 0.05637 0.28692
 C2093 C 0.77322 0.05901 0.28744
 C2094 C 0.76338 0.05042 0.27890
 C2095 C 0.82198 0.09432 0.31712
 C2096 C 0.78465 0.03625 0.26940
 C2097 C 0.79879 0.06588 0.29525
 C2098 C 0.80660 0.07439 0.30221
 C2099 C 0.81515 0.08491 0.31030
 C2100 C 0.76899 0.03904 0.26968
 H2101 H 0.80658 0.04283 0.27743
 H2102 H 0.76868 0.06784 0.29435
 H2103 H 0.75136 0.05267 0.27949
 H2104 H 0.78928 0.02763 0.26231
 C2105 C 0.72706 0.43767 0.28557
 C2106 C 0.71179 0.44121 0.28753
 C2107 C 0.70550 0.45340 0.27996
 C2108 C 0.71447 0.46192 0.27033
 C2109 C 0.68052 0.40346 0.32003
 C2110 C 0.73600 0.44611 0.27595
 C2111 C 0.70258 0.43182 0.29684
 C2112 C 0.69529 0.42338 0.30444
 C2113 C 0.68718 0.41288 0.31303
 C2114 C 0.72978 0.45824 0.26812
 H2115 H 0.73204 0.42826 0.29137
 H2116 H 0.69366 0.45619 0.28135
 H2117 H 0.70936 0.47113 0.26436
 H2118 H 0.74780 0.44316 0.27464
 C2119 C 0.71375 0.95460 0.79079
 C2120 C 0.72030 0.94173 0.79689
 C2121 C 0.73529 0.93806 0.79345
 C2122 C 0.74348 0.94684 0.78348
 C2123 C 0.68707 0.90189 0.82486
 C2124 C 0.72193 0.96341 0.78081
 C2125 C 0.71126 0.93151 0.80549
 C2126 C 0.70363 0.92251 0.81209
 C2127 C 0.69469 0.91155 0.81921
 C2128 C 0.73675 0.95940 0.77675
 H2129 H 0.70213 0.95750 0.79331
 H2130 H 0.74046 0.92811 0.79810
 H2131 H 0.75494 0.94360 0.78072
 H2132 H 0.71640 0.97292 0.77571
 C2133 C 0.20437 0.45263 0.77996
 C2134 C 0.21049 0.44029 0.78743
 C2135 C 0.22588 0.43700 0.78597
 C2136 C 0.23508 0.44580 0.77692
 C2137 C 0.17894 0.40183 0.81897
 C2138 C 0.21360 0.46151 0.77088
 C2139 C 0.20107 0.43058 0.79623
 C2140 C 0.19368 0.42192 0.80351
 C2141 C 0.18554 0.41127 0.81190
 C2142 C 0.22902 0.45804 0.76912
 H2143 H 0.19245 0.45526 0.78100
 H2144 H 0.23076 0.42751 0.79173
 H2145 H 0.24697 0.44302 0.77599
 H2146 H 0.20862 0.47082 0.76496
 C2147 C 0.21467 0.95393 0.29032
 C2148 C 0.22080 0.94023 0.29494
 C2149 C 0.23509 0.93584 0.28988
 C2150 C 0.24297 0.94482 0.27983
 C2151 C 0.18786 0.90089 0.32395
 C2152 C 0.22256 0.96295 0.28028
 C2153 C 0.21194 0.93009 0.30381
 C2154 C 0.20440 0.92120 0.31067
 C2155 C 0.19549 0.91041 0.31809
 C2156 C 0.23664 0.95831 0.27466
 H2157 H 0.20359 0.95740 0.29410
 H2158 H 0.23993 0.92526 0.29337
 H2159 H 0.25388 0.94107 0.27586
 H2160 H 0.21734 0.97320 0.27640
 C2161 C 0.43959 0.29115 0.72930
 C2162 C 0.44378 0.29340 0.71460
 C2163 C 0.45722 0.28712 0.70925
 C2164 C 0.46616 0.27820 0.71844
 C2165 C 0.40385 0.32055 0.68120
 C2166 C 0.44849 0.28223 0.73848
 C2167 C 0.43372 0.30129 0.70489
 C2168 C 0.42475 0.30755 0.69703
 C2169 C 0.41369 0.31461 0.68826
 C2170 C 0.46170 0.27539 0.73306
 H2171 H 0.42923 0.29597 0.73356
 H2172 H 0.46054 0.28875 0.69788
 H2173 H 0.47621 0.27297 0.71394
 H2174 H 0.44488 0.28042 0.74974
 C2175 C 0.43986 0.79363 0.23376
 C2176 C 0.44367 0.79637 0.21905
 C2177 C 0.45678 0.78997 0.21309
 C2178 C 0.46574 0.78043 0.22166
 C2179 C 0.40342 0.82389 0.18622
 C2180 C 0.44877 0.78410 0.24233
 C2181 C 0.43344 0.80472 0.20985
 C2182 C 0.42437 0.81119 0.20226
 C2183 C 0.41326 0.81825 0.19354
 C2184 C 0.46162 0.77712 0.23628
 H2185 H 0.42974 0.79851 0.23849
 H2186 H 0.45979 0.79195 0.20169
 H2187 H 0.47548 0.77511 0.21666
 H2188 H 0.44543 0.78192 0.25361
 C2189 C 0.93938 0.29272 0.23170
 C2190 C 0.94345 0.29475 0.21694
 C2191 C 0.95661 0.28803 0.21147
 C2192 C 0.96543 0.27895 0.22063
 C2193 C 0.90413 0.32204 0.18295
 C2194 C 0.94814 0.28364 0.24085
 C2195 C 0.93351 0.30283 0.20725
 C2196 C 0.92468 0.30920 0.19933
 C2197 C 0.91382 0.31627 0.19034
 C2198 C 0.96111 0.27642 0.23534
 H2199 H 0.92920 0.29786 0.23604
 H2200 H 0.95982 0.28946 0.20004
 H2201 H 0.97526 0.27341 0.21605
 H2202 H 0.94464 0.28203 0.25217
 C2203 C 0.95730 0.79148 0.71363
 C2204 C 0.94405 0.78535 0.70771
 C2205 C 0.94025 0.77039 0.71065
 C2206 C 0.94935 0.76174 0.71992
 C2207 C 0.90436 0.81823 0.67916
 C2208 C 0.96644 0.78283 0.72289
 C2209 C 0.93379 0.79463 0.69944
 C2210 C 0.92481 0.80228 0.69286
 C2211 C 0.91394 0.81104 0.68542
 C2212 C 0.96237 0.76798 0.72641
 H2213 H 0.96033 0.80306 0.71145
 H2214 H 0.93004 0.76552 0.70609
 H2215 H 0.94605 0.75027 0.72226
 H2216 H 0.97632 0.78796 0.72782
 C2217 C 0.56144 0.27274 0.28583
 C2218 C 0.55804 0.28792 0.28779
 C2219 C 0.54577 0.29428 0.28030
 C2220 C 0.53708 0.28550 0.27071
 C2221 C 0.59657 0.31862 0.31989
 C2222 C 0.55283 0.26398 0.27626
 C2223 C 0.56766 0.29695 0.29700
 C2224 C 0.57631 0.30409 0.30450
 C2225 C 0.58701 0.31205 0.31297
 C2226 C 0.54066 0.27029 0.26846
 H2227 H 0.57089 0.26769 0.29157
 H2228 H 0.54307 0.30605 0.28170
 H2229 H 0.52783 0.29066 0.26478
 H2230 H 0.55569 0.25224 0.27495
 C2231 C 0.54217 0.79132 0.78685
 C2232 C 0.55525 0.79797 0.78102
 C2233 C 0.55891 0.79585 0.76618
 C2234 C 0.54988 0.78668 0.75734
 C2235 C 0.59578 0.82447 0.81440
 C2236 C 0.53309 0.78216 0.77800
 C2237 C 0.56559 0.80595 0.79042
 C2238 C 0.57474 0.81217 0.79813
 C2239 C 0.58592 0.81899 0.80698
 C2240 C 0.53707 0.77945 0.76325
 H2241 H 0.53928 0.79282 0.79835
 H2242 H 0.56900 0.80093 0.76155
 H2243 H 0.55311 0.78494 0.74597
 H2244 H 0.52337 0.77662 0.78287
 C2245 C 0.06115 0.26830 0.78846
 C2246 C 0.05701 0.28286 0.79255
 C2247 C 0.04361 0.28911 0.78714
 C2248 C 0.03466 0.28104 0.77724
 C2249 C 0.09597 0.31538 0.82232
 C2250 C 0.05223 0.26022 0.77855
 C2251 C 0.06709 0.29178 0.80135
 C2252 C 0.07590 0.29930 0.80827
 C2253 C 0.08658 0.30805 0.81596
 C2254 C 0.03908 0.26665 0.77257
 H2255 H 0.07148 0.26335 0.79261
 H2256 H 0.04033 0.30040 0.79020
 H2257 H 0.02466 0.28632 0.77272
 H2258 H 0.05578 0.24907 0.77532
 C2259 C 0.06009 0.79387 0.26654
 C2260 C 0.05633 0.79649 0.28128
 C2261 C 0.04333 0.78989 0.28729
 C2262 C 0.03442 0.78026 0.27875
 C2263 C 0.09626 0.82420 0.31435
 C2264 C 0.05123 0.78426 0.25800
 C2265 C 0.06651 0.80491 0.29047
 C2266 C 0.07551 0.81144 0.29810
 C2267 C 0.08651 0.81854 0.30693
 C2268 C 0.03849 0.77707 0.26411
 H2269 H 0.07014 0.79891 0.26178
 H2270 H 0.04036 0.79177 0.29872
 H2271 H 0.02477 0.77479 0.28380
 H2272 H 0.05453 0.78217 0.24670
 C2273 C 0.54405 0.71038 0.72069
 C2274 C 0.55580 0.71607 0.71193
 C2275 C 0.55867 0.73151 0.71169
 C2276 C 0.54999 0.74122 0.72027
 C2277 C 0.59372 0.68248 0.68205
 C2278 C 0.53530 0.72010 0.72929
 C2279 C 0.56534 0.70619 0.70355
 C2280 C 0.57384 0.69835 0.69661
 C2281 C 0.58434 0.68962 0.68865
 C2282 C 0.53828 0.73562 0.72926
 H2283 H 0.54178 0.69843 0.72099
 H2284 H 0.56772 0.73604 0.70495
 H2285 H 0.55240 0.75314 0.71985
 H2286 H 0.52645 0.71547 0.73619
 C2287 C 0.54577 0.20758 0.21760
 C2288 C 0.55798 0.21379 0.20983
 C2289 C 0.56131 0.22907 0.21125
 C2290 C 0.55267 0.23808 0.22057
 C2291 C 0.59658 0.18195 0.17897
 C2292 C 0.53705 0.21662 0.22693
 C2293 C 0.56763 0.20450 0.20092
 C2294 C 0.57627 0.19709 0.19369
 C2295 C 0.58698 0.18878 0.18557
 C2296 C 0.54055 0.23193 0.22864
 H2297 H 0.54315 0.19574 0.21664
 H2298 H 0.57074 0.23399 0.20531
 H2299 H 0.55548 0.24988 0.22152
 H2300 H 0.52787 0.21157 0.23310
 C2301 C 0.06052 0.72819 0.21369
 C2302 C 0.05814 0.71270 0.21459
 C2303 C 0.04649 0.70705 0.22351
 C2304 C 0.03739 0.71690 0.23166
 C2305 C 0.09713 0.67994 0.18503
 C2306 C 0.05150 0.73801 0.22181
 C2307 C 0.06806 0.70277 0.20664
 C2308 C 0.07685 0.69504 0.19990
 C2309 C 0.08762 0.68663 0.19192
 C2310 C 0.03994 0.73249 0.23101
 H2311 H 0.06947 0.73270 0.20681
 H2312 H 0.04458 0.69507 0.22433
 H2313 H 0.02865 0.71233 0.23874
 H2314 H 0.05358 0.74996 0.22091
 C2315 C 0.04431 0.21622 0.71004
 C2316 C 0.05826 0.22213 0.70553
 C2317 C 0.06278 0.23633 0.71043
 C2318 C 0.05366 0.24436 0.72020
 C2319 C 0.09807 0.18939 0.67703
 C2320 C 0.03515 0.22425 0.71981
 C2321 C 0.06851 0.21323 0.69686
 C2322 C 0.07752 0.20575 0.69013
 C2323 C 0.08846 0.19695 0.68283
 C2324 C 0.03990 0.23827 0.72526
 H2325 H 0.04074 0.20520 0.70637
 H2326 H 0.07356 0.24101 0.70703
 H2327 H 0.05751 0.25522 0.72403
 H2328 H 0.02468 0.21922 0.72361
 C2329 C 0.43960 0.72800 0.28660
 C2330 C 0.44216 0.71254 0.28587
 C2331 C 0.45392 0.70699 0.27706
 C2332 C 0.46296 0.71691 0.26887
 C2333 C 0.40348 0.67973 0.31593
 C2334 C 0.44855 0.73789 0.27844
 C2335 C 0.43236 0.70255 0.29394
 C2336 C 0.42364 0.69480 0.30079
 C2337 C 0.41294 0.68639 0.30892
 C2338 C 0.46023 0.73246 0.26936
 H2339 H 0.43056 0.73243 0.29340
 H2340 H 0.45598 0.69503 0.27639
 H2341 H 0.47179 0.71241 0.26190
 H2342 H 0.44634 0.74981 0.27921
 C2343 C 0.44034 0.22784 0.78523
 C2344 C 0.44362 0.21250 0.78539
 C2345 C 0.45566 0.20696 0.77697
 C2346 C 0.46433 0.21676 0.76831
 C2347 C 0.40609 0.17977 0.81677
 C2348 C 0.44892 0.23762 0.77659
 C2349 C 0.43424 0.20259 0.79398
 C2350 C 0.42583 0.19487 0.80120
 C2351 C 0.41542 0.18647 0.80964
 C2352 C 0.46094 0.23219 0.76795
 H2353 H 0.43106 0.23225 0.79172
 H2354 H 0.45825 0.19508 0.77699
 H2355 H 0.47344 0.21227 0.76168
 H2356 H 0.44621 0.24947 0.77671
 C2357 C 0.93923 0.73272 0.78633
 C2358 C 0.94393 0.71826 0.79023
 C2359 C 0.95789 0.71287 0.78522
 C2360 C 0.96689 0.72173 0.77595
 C2361 C 0.90498 0.68445 0.81892
 C2362 C 0.94819 0.74156 0.77706
 C2363 C 0.93394 0.70872 0.79857
 C2364 C 0.92515 0.70086 0.80521
 C2365 C 0.91443 0.69188 0.81268
 C2366 C 0.96197 0.73605 0.77153
 H2367 H 0.92847 0.73701 0.79017
 H2368 H 0.96162 0.70168 0.78815
 H2369 H 0.97739 0.71715 0.77176
 H2370 H 0.94421 0.75263 0.77402
 C2371 C 0.93951 0.23004 0.28836
 C2372 C 0.94231 0.21460 0.28853
 C2373 C 0.95414 0.20870 0.28005
 C2374 C 0.96300 0.21822 0.27126
 C2375 C 0.90380 0.18158 0.31861
 C2376 C 0.94830 0.23953 0.27959
 C2377 C 0.93258 0.20492 0.29702
 C2378 C 0.92392 0.19723 0.30401
 C2379 C 0.91327 0.18865 0.31201
 C2380 C 0.96004 0.23372 0.27082
 H2381 H 0.93041 0.23474 0.29488
 H2382 H 0.95637 0.19675 0.28006
 H2383 H 0.97190 0.21342 0.26455
 H2384 H 0.94591 0.25145 0.27966
 C2385 C 0.27073 0.28475 0.56442
 C2386 C 0.28515 0.28922 0.55977
 C2387 C 0.29066 0.28443 0.54611
 C2388 C 0.28195 0.27487 0.53732
 C2389 C 0.31837 0.31967 0.59733
 C2390 C 0.26201 0.27519 0.55567
 C2391 C 0.29454 0.29802 0.56942
 C2392 C 0.30227 0.30506 0.57788
 C2393 C 0.31109 0.31303 0.58820
 C2394 C 0.26764 0.26992 0.54214
 H2395 H 0.26634 0.28840 0.57497
 H2396 H 0.30183 0.28778 0.54242
 H2397 H 0.28664 0.27087 0.52703
 H2398 H 0.25096 0.27173 0.55958
 C2399 C 0.29408 0.76565 0.06199
 C2400 C 0.29680 0.78070 0.05843
 C2401 C 0.29007 0.78697 0.04593
 C2402 C 0.28024 0.77837 0.03729
 C2403 C 0.32530 0.81419 0.09713
 C2404 C 0.28425 0.75704 0.05340
 C2405 C 0.30547 0.78997 0.06831
 C2406 C 0.31219 0.79768 0.07702
 C2407 C 0.31949 0.80663 0.08769
 C2408 C 0.27697 0.76340 0.04114
 H2409 H 0.29922 0.76068 0.07165
 H2410 H 0.29202 0.79864 0.04311
 H2411 H 0.27469 0.78362 0.02801
 H2412 H 0.28210 0.74549 0.05651
 C2413 C 0.79476 0.26462 0.06040
 C2414 C 0.79611 0.27991 0.05709
 C2415 C 0.78880 0.28576 0.04469
 C2416 C 0.77977 0.27647 0.03594
 C2417 C 0.82321 0.31445 0.09593
 C2418 C 0.78572 0.25532 0.05168
 C2419 C 0.80409 0.28971 0.06703
 C2420 C 0.81038 0.29774 0.07579
 C2421 C 0.81741 0.30689 0.08648
 C2422 C 0.77786 0.26121 0.03953
 H2423 H 0.80037 0.25996 0.06996
 H2424 H 0.78971 0.29760 0.04206
 H2425 H 0.77373 0.28135 0.02675
 H2426 H 0.78461 0.24358 0.05462
 C2427 C 0.77254 0.78549 0.56251
 C2428 C 0.78786 0.78689 0.55889
 C2429 C 0.79374 0.77900 0.54685
 C2430 C 0.78434 0.76959 0.53856
 C2431 C 0.82039 0.81918 0.59540
 C2432 C 0.76316 0.77610 0.55429
 C2433 C 0.79748 0.79601 0.56799
 C2434 C 0.80509 0.80352 0.57617
 C2435 C 0.81352 0.81209 0.58631
 C2436 C 0.76897 0.76793 0.54233
 H2437 H 0.76786 0.79155 0.57179
 H2438 H 0.80561 0.77997 0.54399
 H2439 H 0.78913 0.76336 0.52946
 H2440 H 0.75132 0.77522 0.55729
 C2441 C 0.27335 0.71226 0.43823
 C2442 C 0.28890 0.71348 0.44080
 C2443 C 0.29419 0.72279 0.45210
 C2444 C 0.28393 0.73098 0.46069
 C2445 C 0.32275 0.68345 0.40355
 C2446 C 0.26312 0.72043 0.44674
 C2447 C 0.29923 0.70542 0.43145
 C2448 C 0.30724 0.69856 0.42309
 C2449 C 0.31592 0.69044 0.41276
 C2450 C 0.26829 0.72998 0.45798
 H2451 H 0.26911 0.70506 0.42955
 H2452 H 0.30621 0.72385 0.45416
 H2453 H 0.28823 0.73833 0.46921
 H2454 H 0.25114 0.71926 0.44456
 C2455 C 0.29340 0.23207 0.93857
 C2456 C 0.29641 0.21717 0.94243
 C2457 C 0.29004 0.21110 0.95524
 C2458 C 0.28028 0.21975 0.96389
 C2459 C 0.32569 0.18391 0.90409
 C2460 C 0.28365 0.24073 0.94719
 C2461 C 0.30512 0.20786 0.93264
 C2462 C 0.31196 0.20015 0.92401
 C2463 C 0.31952 0.19129 0.91345
 C2464 C 0.27672 0.23456 0.95978
 H2465 H 0.29826 0.23689 0.92867
 H2466 H 0.29225 0.19955 0.95829
 H2467 H 0.27501 0.21463 0.97343
 H2468 H 0.28129 0.25216 0.94386
 C2469 C 0.77119 0.70864 0.93678
 C2470 C 0.78675 0.70917 0.93951
 C2471 C 0.79234 0.71828 0.95083
 C2472 C 0.78239 0.72691 0.95932
 C2473 C 0.82093 0.67873 0.90286
 C2474 C 0.76126 0.71725 0.94521
 C2475 C 0.79683 0.70067 0.93030
 C2476 C 0.80481 0.69359 0.92209
 C2477 C 0.81368 0.68546 0.91195
 C2478 C 0.76674 0.72657 0.95650
 H2479 H 0.76674 0.70164 0.92806
 H2480 H 0.80438 0.71883 0.95299
 H2481 H 0.78694 0.73407 0.96787
 H2482 H 0.74925 0.71657 0.94293
 C2483 C 0.76996 0.20587 0.43764
 C2484 C 0.78516 0.20382 0.44144
 C2485 C 0.79092 0.21063 0.45413
 C2486 C 0.78164 0.21985 0.46273
 C2487 C 0.81929 0.17551 0.40307
 C2488 C 0.76070 0.21511 0.44617
 C2489 C 0.79495 0.19555 0.43173
 C2490 C 0.80292 0.18898 0.42310
 C2491 C 0.81192 0.18161 0.41249
 C2492 C 0.76652 0.22243 0.45865
 H2493 H 0.76537 0.20064 0.42785
 H2494 H 0.80268 0.20918 0.45715
 H2495 H 0.78645 0.22546 0.47220
 H2496 H 0.74905 0.21676 0.44287
 C2497 C 0.72202 0.29098 0.45158
 C2498 C 0.71330 0.28524 0.44001
 C2499 C 0.71330 0.26981 0.43720
 C2500 C 0.72207 0.26017 0.44576
 C2501 C 0.68194 0.31851 0.40323
 C2502 C 0.73082 0.28131 0.46021
 C2503 C 0.70463 0.29505 0.43066
 C2504 C 0.69739 0.30282 0.42238
 C2505 C 0.68899 0.31146 0.41223
 C2506 C 0.73104 0.26581 0.45729
 H2507 H 0.72214 0.30292 0.45383
 H2508 H 0.70658 0.26522 0.42830
 H2509 H 0.72182 0.24826 0.44339
 H2510 H 0.73769 0.28599 0.46894
 C2511 C 0.70492 0.76328 0.93707
 C2512 C 0.70254 0.77833 0.94078
 C2513 C 0.70941 0.78432 0.95335
 C2514 C 0.71901 0.77543 0.96191
 C2515 C 0.67428 0.81297 0.90294
 C2516 C 0.71454 0.75438 0.94558
 C2517 C 0.69402 0.78788 0.93107
 C2518 C 0.68738 0.79585 0.92254
 C2519 C 0.68011 0.80514 0.91214
 C2520 C 0.72193 0.76046 0.95792
 H2521 H 0.69967 0.75852 0.92737
 H2522 H 0.70773 0.79599 0.95628
 H2523 H 0.72466 0.78044 0.97127
 H2524 H 0.71645 0.74284 0.94236
 C2525 C 0.21610 0.27117 0.93673
 C2526 C 0.21203 0.28549 0.94162
 C2527 C 0.21703 0.29059 0.95534
 C2528 C 0.22640 0.28153 0.96399
 C2529 C 0.18143 0.31887 0.90447
 C2530 C 0.22546 0.26211 0.94533
 C2531 C 0.20331 0.29512 0.93218
 C2532 C 0.19627 0.30296 0.92384
 C2533 C 0.18823 0.31176 0.91359
 C2534 C 0.23092 0.26730 0.95895
 H2535 H 0.21227 0.26710 0.92614
 H2536 H 0.21397 0.30168 0.95921
 H2537 H 0.23054 0.28586 0.97436
 H2538 H 0.22857 0.25112 0.94127
 C2539 C 0.20571 0.76502 0.43804
 C2540 C 0.20258 0.77988 0.44194
 C2541 C 0.20896 0.78597 0.45470
 C2542 C 0.21883 0.77738 0.46327
 C2543 C 0.17390 0.81366 0.40369
 C2544 C 0.21558 0.75642 0.44658
 C2545 C 0.19385 0.78918 0.43219
 C2546 C 0.18707 0.79696 0.42357
 C2547 C 0.17972 0.80600 0.41303
 C2548 C 0.22250 0.76262 0.45911
 H2549 H 0.20084 0.76020 0.42818
 H2550 H 0.20669 0.79750 0.45777
 H2551 H 0.22410 0.78250 0.47278
 H2552 H 0.21804 0.74503 0.44322
 C2553 C 0.72561 0.71091 0.56269
 C2554 C 0.71011 0.70993 0.55976
 C2555 C 0.70393 0.71810 0.54804
 C2556 C 0.71321 0.72740 0.53943
 C2557 C 0.67773 0.67886 0.59768
 C2558 C 0.73486 0.72020 0.55416
 C2559 C 0.70062 0.70105 0.56930
 C2560 C 0.69308 0.69381 0.57782
 C2561 C 0.68466 0.68560 0.58833
 C2562 C 0.72874 0.72870 0.54256
 H2563 H 0.73053 0.70464 0.57171
 H2564 H 0.69193 0.71747 0.54571
 H2565 H 0.70819 0.73389 0.53062
 H2566 H 0.74682 0.72078 0.55666
 C2567 C 0.71005 0.21584 0.04760
 C2568 C 0.71638 0.20659 0.05844
 C2569 C 0.73209 0.20603 0.06012
 C2570 C 0.74144 0.21492 0.05128
 C2571 C 0.68404 0.17803 0.09826
 C2572 C 0.71941 0.22474 0.03868
 C2573 C 0.70689 0.19832 0.06851
 C2574 C 0.69938 0.19163 0.07747
 C2575 C 0.69098 0.18412 0.08850
 C2576 C 0.73520 0.22453 0.04061
 H2577 H 0.69789 0.21642 0.04626
 H2578 H 0.73712 0.19892 0.06845
 H2579 H 0.75357 0.21438 0.05286
 H2580 H 0.71431 0.23211 0.03062
 C2581 C 0.20581 0.72256 0.04858
 C2582 C 0.21133 0.71307 0.05964
 C2583 C 0.22693 0.71186 0.06189
 C2584 C 0.23698 0.72025 0.05334
 C2585 C 0.17787 0.68300 0.09736
 C2586 C 0.21589 0.73096 0.03995
 C2587 C 0.20117 0.70490 0.06912
 C2588 C 0.19325 0.69801 0.07759
 C2589 C 0.18466 0.68992 0.08804
 C2590 C 0.23158 0.73001 0.04237
 H2591 H 0.19375 0.72361 0.04677
 H2592 H 0.23133 0.70452 0.07038
 H2593 H 0.24901 0.71911 0.05529
 H2594 H 0.21142 0.73846 0.03165
 C2595 C 0.21372 0.20877 0.54569
 C2596 C 0.21990 0.20290 0.55865
 C2597 C 0.23476 0.20654 0.56258
 C2598 C 0.24323 0.21643 0.55390
 C2599 C 0.18604 0.17460 0.59740
 C2600 C 0.22219 0.21866 0.53697
 C2601 C 0.21063 0.19423 0.56857
 C2602 C 0.20285 0.18753 0.57730
 C2603 C 0.19376 0.18030 0.58797
 C2604 C 0.23691 0.22287 0.54118
 H2605 H 0.20220 0.20612 0.54259
 H2606 H 0.23964 0.20209 0.57261
 H2607 H 0.25460 0.21932 0.55732
 H2608 H 0.21697 0.22357 0.52733
   
