data_POSCAR
  _audit_creation_date              2014-09-24
  _audit_creation_method            'ToBaCCo'
  _symmetry_space_group_name_H-M    'P1'
  _symmetry_Int_Tables_number       1
  _symmetry_cell_setting            triclinic
  loop_
  _symmetry_equiv_pos_as_xyz
 x,y,z
_cell_length_a 54.5573
_cell_length_b 54.4463
_cell_length_c 54.4262
_cell_angle_alpha 90.045700
_cell_angle_beta 90.076100
_cell_angle_gamma 90.044300
loop_
  _atom_site_label
  _atom_site_type_symbol
  _atom_site_fract_x
  _atom_site_fract_y
  _atom_site_fract_z
C1 C 0.30628 0.44374 0.91430
 N2 N 0.32674 0.45383 0.92427
 C3 C 0.33706 0.44381 0.94461
 N4 N 0.32696 0.42345 0.95486
 C5 C 0.30648 0.41329 0.94494
 N6 N 0.29622 0.42340 0.92459
 C7 C 0.44380 0.83739 0.44385
 N8 N 0.45395 0.82727 0.42346
 C9 C 0.44393 0.80685 0.41324
 N10 N 0.42359 0.79667 0.42331
 C11 C 0.41340 0.80672 0.44370
 N12 N 0.42346 0.82714 0.45387
 C13 C 0.94417 0.91482 0.80679
 N14 N 0.95428 0.92485 0.82728
 C15 C 0.94418 0.94517 0.83761
 N16 N 0.92381 0.95529 0.82750
 C17 C 0.91370 0.94534 0.80701
 N18 N 0.92381 0.92503 0.79675
 C19 C 0.44477 -0.08662 0.30492
 N20 N 0.45459 -0.07662 0.32556
 C21 C 0.44453 -0.05618 0.33562
 N22 N 0.42447 -0.04585 0.32514
 C23 C 0.41461 -0.05575 0.30448
 N24 N 0.42470 -0.07621 0.29447
 C25 C 0.80573 0.30488 0.33481
 N26 N 0.82624 0.29498 0.32481
 C27 C 0.83662 0.30540 0.30472
 N28 N 0.82661 0.32591 0.29478
 C29 C 0.80611 0.33588 0.30472
 N30 N 0.79574 0.32541 0.32482
 C31 C -0.19351 0.83760 0.80617
 N32 N -0.20382 0.82761 0.82655
 C33 C -0.19395 0.80720 0.83692
 N34 N -0.17360 0.79692 0.82696
 C35 C -0.16326 0.80683 0.80660
 N36 N -0.17316 0.82723 0.79630
 C37 C 0.94467 0.33569 0.44445
 N38 N 0.92460 0.32529 0.45482
 C39 C 0.91468 0.30466 0.44495
 N40 N 0.92468 0.29462 0.42446
 C41 C 0.94474 0.30499 0.41403
 N42 N 0.95466 0.32559 0.42399
 C43 C 0.44389 0.44365 0.83715
 N44 N 0.45391 0.42328 0.82688
 C45 C 0.44377 0.41322 0.80646
 N46 N 0.42341 0.42339 0.79641
 C47 C 0.41334 0.44376 0.80659
 N48 N 0.42353 0.45381 0.82703
 C49 C 0.80711 0.91323 0.94460
 N50 N 0.82755 0.92338 0.95459
 C51 C 0.83761 0.94384 0.94451
 N52 N 0.82726 0.95401 0.92421
 C53 C 0.80681 0.94388 0.91417
 N54 N 0.79685 0.92345 0.92433
 C55 C 0.30571 0.83645 0.30490
 N56 N 0.32624 0.82642 0.29505
 C57 C 0.33661 0.80631 0.30548
 N58 N 0.32654 0.79637 0.32598
 C59 C 0.30602 0.80635 0.33591
 N60 N 0.29570 0.82644 0.32541
 C61 C 0.80491 0.41428 0.44455
 N62 N 0.82539 0.42433 0.45456
 C63 C 0.83574 0.44449 0.44421
 N64 N 0.82571 0.45444 0.42369
 C65 C 0.80525 0.44441 0.41365
 N66 N 0.79496 0.42425 0.42401
 C67 C 0.94470 0.83758 -0.05626
 N68 N 0.92434 0.82730 -0.04628
 C69 C 0.91429 0.80691 -0.05652
 N70 N 0.92452 0.79690 -0.07692
 C71 C 0.94488 0.80711 -0.08696
 N72 N 0.95485 0.82752 -0.07667
 C73 C 0.30566 0.33624 0.80665
 N74 N 0.29559 0.32614 0.82706
 C75 C 0.30565 0.30577 0.83723
 N76 N 0.32599 0.29564 0.82712
 C77 C 0.33613 0.30570 0.80671
 N78 N 0.32600 0.32608 0.79656
 C79 C 0.16565 0.55402 0.55374
 N80 N 0.17585 0.57434 0.54357
 C81 C 0.19624 0.58447 0.55367
 N82 N 0.20626 0.57441 0.57414
 C83 C 0.19612 0.55409 0.58435
 N84 N 0.17573 0.54399 0.57421
 C85 C 0.58492 0.69599 0.05299
 N86 N 0.57500 0.70626 0.07341
 C87 C 0.55463 0.69636 0.08370
 N88 N 0.54435 0.67597 0.07372
 C89 C 0.55421 0.66563 0.05331
 N90 N 0.57458 0.67559 0.04303
 C91 C 0.69480 0.19502 0.66449
 N92 N 0.70506 0.17484 0.67485
 C93 C 0.69532 0.16504 0.69555
 N94 N 0.67509 0.17528 0.70576
 C95 C 0.66476 0.19547 0.69545
 N96 N 0.67456 0.20525 0.67473
 C97 C 1.08667 0.05405 0.19472
 N98 N 1.07653 0.07426 0.20518
 C99 C 1.05585 0.08423 0.19560
 N100 N 1.04542 0.07411 0.17534
 C101 C 1.05546 0.05389 0.16479
 N102 N 1.07616 0.04394 0.17445
 C103 C 0.05376 0.16450 1.05453
 N104 N 0.04361 0.17457 1.07495
 C105 C 0.05360 0.19499 1.08523
 N106 N 0.07394 0.20520 1.07515
 C107 C 0.08413 0.19520 1.05474
 N108 N 0.07410 0.17479 1.04454
 C109 C 0.16582 0.69658 0.69682
 N110 N 0.17602 0.67623 0.70690
 C111 C 0.19635 0.66611 0.69678
 N112 N 0.20634 0.67622 0.67632
 C113 C 0.19617 0.69657 0.66616
 N114 N 0.17583 0.70665 0.67636
 C115 C 1.19522 0.16297 0.19466
 N116 N 1.20553 0.17329 0.17445
 C117 C 1.19590 0.19409 0.16466
 N118 N 1.17577 0.20442 0.17498
 C119 C 1.16542 0.19420 0.19518
 N120 N 1.17509 0.17341 0.20493
 C121 C 0.66469 1.05516 0.55445
 N122 N 0.67495 1.04487 0.57467
 C123 C 0.69516 1.05507 0.58504
 N124 N 0.70498 1.07580 0.57526
 C125 C 0.69473 1.08618 0.55502
 N126 N 0.67452 1.07587 0.54473
 C127 C 0.55419 0.55365 0.16566
 N128 N 0.54396 0.57408 0.17560
 C129 C 0.55395 0.58448 0.19596
 N130 N 0.57436 0.57459 0.20619
 C131 C 0.58462 0.55417 0.19628
 N132 N 0.57459 0.54381 0.17594
 C133 C 0.66611 0.69662 0.19568
 N134 N 0.67614 0.70687 0.17531
 C135 C 0.69650 0.69690 0.16506
 N136 N 0.70666 0.67650 0.17506
 C137 C 0.69672 0.66620 0.19542
 N138 N 0.67635 0.67619 0.20564
 C139 C 0.16391 0.05360 1.05552
 N140 N 0.17396 0.04378 1.07611
 C141 C 0.19428 0.05399 1.08627
 N142 N 0.20445 0.07424 1.07590
 C143 C 0.19448 0.08412 1.05531
 N144 N 0.17413 0.07387 1.04522
 C145 C 0.58535 0.19544 0.55466
 N146 N 0.57513 0.20568 0.57494
 C147 C 0.55451 0.19585 0.58478
 N148 N 0.54428 0.17559 0.57448
 C149 C 0.55443 0.16533 0.55419
 N150 N 0.57505 0.17520 0.54437
 C151 C 0.08420 0.55423 0.69645
 N152 N 0.07412 0.57467 0.70654
 C153 C 0.05380 0.58485 0.69636
 N154 N 0.04374 0.57470 0.67593
 C155 C 0.05376 0.55426 0.66583
 N156 N 0.07407 0.54414 0.67603
 C157 C 0.66558 0.55438 0.05251
 N158 N 0.67586 0.57476 0.04255
 C159 C 0.69628 0.58472 0.05276
 N160 N 0.70626 0.57442 0.07315
 C161 C 0.69600 0.55405 0.08317
 N162 N 0.67559 0.54413 0.07290
 C163 C 0.05394 0.69709 0.58442
 N164 N 0.07433 0.70702 0.57418
 C165 C 0.08432 0.69675 0.55381
 N166 N 0.07405 0.67635 0.54383
 C167 C 0.05365 0.66637 0.55400
 N168 N 0.04369 0.67669 0.57438
 C169 C 0.55381 1.05332 0.66490
 N170 N 0.57422 1.04338 0.67519
 C171 C 0.58418 1.05358 0.69567
 N172 N 0.57386 1.07389 0.70570
 C173 C 0.55347 1.08387 0.69551
 N174 N 0.54354 1.07365 0.67504
 C175 C 0.44341 0.33671 0.94483
 N176 N 0.45362 0.32659 0.92445
 C177 C 0.44372 0.30607 0.91429
 N178 N 0.42343 0.29581 0.92439
 C179 C 0.41319 0.30585 0.94475
 N180 N 0.42312 0.32635 0.95487
 C181 C 0.94408 0.44354 0.33734
 N182 N 0.92378 0.45370 0.32713
 C183 C 0.91367 0.44369 0.30664
 N184 N 0.92379 0.42331 0.29647
 C185 C 0.94409 0.41308 0.30664
 N186 N 0.95413 0.42315 0.32713
 C187 C 0.30587 0.94531 0.41448
 N188 N 0.29587 0.92483 0.42452
 C189 C 0.30618 0.91445 0.44468
 N190 N 0.32669 0.92443 0.45465
 C191 C 0.33680 0.94490 0.44466
 N192 N 0.32642 0.95525 0.42448
 O193 O 0.18492 0.53172 0.74892
 O194 O 0.19360 0.52947 0.79205
 O195 O 0.24870 0.56531 0.71929
 O196 O 0.28927 0.55858 0.71961
 O197 O 0.21819 0.50160 0.68533
 O198 O 0.22049 0.45850 0.69403
 O199 O 0.31370 0.49787 0.78310
 O200 O 0.30714 0.54059 0.77878
 O201 O 0.25189 0.46785 0.81460
 O202 O 0.20756 0.46992 0.80619
 O203 O 0.28190 0.43604 0.75257
 O204 O 0.27991 0.44440 0.70822
 O205 O 0.31381 0.46839 0.75341
 O206 O 0.30514 0.47190 0.70775
 O207 O 0.25245 0.43587 0.78216
 O208 O 0.20693 0.44467 0.77875
 O209 O 0.28171 0.49712 0.81477
 O210 O 0.27774 0.54230 0.80688
 O211 O 0.18462 0.50200 0.71937
 O212 O 0.19357 0.45820 0.72216
 O213 O 0.24774 0.53123 0.68530
 O214 O 0.29204 0.52656 0.69470
 O215 O 0.21898 0.56540 0.74871
 O216 O 0.22172 0.55634 0.79246
 Zr217 Zr 0.22038 0.52989 0.76403
 O218 O 0.24166 0.50796 0.78765
 Zr219 Zr 0.26337 0.52967 0.72071
 O220 O 0.28692 0.50833 0.74278
 Zr221 Zr 0.22001 0.48657 0.72087
 O222 O 0.24185 0.46295 0.74229
 Zr223 Zr 0.27892 0.51397 0.78010
 O224 O 0.25770 0.53801 0.75817
 Zr225 Zr 0.23583 0.47065 0.77961
 O226 O 0.21193 0.49255 0.75821
 Zr227 Zr 0.27913 0.47102 0.73658
 O228 O 0.25727 0.49236 0.71255
 O229 O 0.22635 0.52365 0.72692
 O230 O 0.27302 0.47674 0.77385
 C231 C 0.17460 0.51962 0.73147
 C232 C 0.23121 0.57555 0.73128
 C233 C 0.23024 0.51909 0.67512
 C234 C 0.32366 0.48001 0.77144
 C235 C 0.26989 0.47928 0.82461
 C236 C 0.27034 0.42602 0.77046
 H237 H 0.23754 0.51177 0.80490
 H238 H 0.23797 0.44569 0.73821
 H239 H 0.21591 0.53420 0.71648
 H240 H 0.30422 0.51240 0.73922
 H241 H 0.30014 0.55523 0.77058
 H242 H 0.30358 0.55339 0.72949
 H243 H 0.21031 0.43290 0.76533
 H244 H 0.18504 0.45983 0.73811
 H245 H 0.26421 0.53875 0.81843
 H246 H 0.23776 0.56473 0.79101
 H247 H 0.26484 0.43440 0.70957
 H248 H 0.23686 0.45914 0.68625
 H249 H 0.18585 0.51303 0.79146
 H250 H 0.20906 0.48493 0.81633
 H251 H 0.28882 0.51153 0.68497
 H252 H 0.31694 0.48523 0.71130
 O253 O 0.31537 -0.00234 0.27988
 O254 O 0.30693 0.04115 0.27687
 O255 O 0.25214 -0.03072 0.31504
 O256 O 0.21120 -0.02976 0.30896
 O257 O 0.28087 -0.06586 0.25141
 O258 O 0.27756 -0.05763 0.20793
 O259 O 0.18618 0.03232 0.24735
 O260 O 0.19342 0.02813 0.29036
 O261 O 0.24765 0.06329 0.21654
 O262 O 0.29237 0.05436 0.21844
 O263 O 0.21692 0.00121 0.18567
 O264 O 0.21917 -0.04357 0.19484
 O265 O 0.18542 0.00216 0.21834
 O266 O 0.19355 -0.04299 0.22187
 O267 O 0.24668 0.03053 0.18481
 O268 O 0.29184 0.02740 0.19277
 O269 O 0.21842 0.06394 0.24636
 O270 O 0.22255 0.05662 0.29114
 O271 O 0.31474 -0.03232 0.25059
 O272 O 0.30522 -0.03007 0.20708
 O273 O 0.25199 -0.06517 0.28164
 O274 O 0.20792 -0.05586 0.27753
 O275 O 0.28215 -0.00155 0.31412
 O276 O 0.27971 0.04185 0.30471
 Zr277 Zr 0.28005 0.01322 0.27845
 O278 O 0.25841 0.03668 0.25671
 Zr279 Zr 0.23663 -0.02972 0.27963
 O280 O 0.21288 -0.00796 0.25817
 Zr281 Zr 0.27913 -0.03056 0.23576
 O282 O 0.25723 -0.00914 0.21219
 Zr283 Zr 0.22116 0.02937 0.26328
 O284 O 0.24281 0.00778 0.28729
 Zr285 Zr 0.26362 0.02824 0.21943
 O286 O 0.28772 0.00679 0.24106
 Zr287 Zr 0.22006 -0.01458 0.22079
 O288 O 0.24192 -0.03846 0.24231
 O289 O 0.27355 -0.02389 0.27284
 O290 O 0.22648 0.02271 0.22602
 C291 C 0.32521 -0.02015 0.26792
 C292 C 0.27003 -0.01876 0.32475
 C293 C 0.26919 -0.07565 0.26941
 C294 C 0.17586 0.02040 0.22979
 C295 C 0.23000 0.07355 0.22825
 C296 C 0.22855 0.01887 0.17530
 H297 H 0.26270 0.05394 0.26029
 H298 H 0.26083 -0.01341 0.19492
 H299 H 0.28409 -0.03424 0.28337
 H300 H 0.19562 -0.01139 0.26249
 H301 H 0.20078 0.02037 0.30507
 H302 H 0.19649 -0.02072 0.30339
 H303 H 0.28883 0.01318 0.18185
 H304 H 0.31363 -0.01398 0.20806
 H305 H 0.23683 0.06736 0.28800
 H306 H 0.26364 0.04094 0.31309
 H307 H 0.23346 -0.04162 0.18385
 H308 H 0.26129 -0.06556 0.20934
 H309 H 0.31473 0.03982 0.26050
 H310 H 0.29054 0.06528 0.23285
 H311 H 0.21048 -0.06539 0.26224
 H312 H 0.18273 -0.03993 0.23611
 O313 O 0.56571 0.71987 0.24761
 O314 O 0.55730 0.72258 0.29095
 O315 O 0.50207 0.68512 0.21887
 O316 O 0.46133 0.69142 0.21954
 O317 O 0.53137 0.74888 0.18408
 O318 O 0.52853 0.79217 0.19258
 O319 O 0.43673 0.75262 0.28238
 O320 O 0.44375 0.70974 0.27800
 O321 O 0.49833 0.78331 0.31341
 O322 O 0.54294 0.78140 0.30462
 O323 O 0.46772 0.81444 0.25143
 O324 O 0.46967 0.80556 0.20684
 O325 O 0.43610 0.78181 0.25245
 O326 O 0.44430 0.77823 0.20699
 O327 O 0.49742 0.81509 0.28084
 O328 O 0.54273 0.80693 0.27750
 O329 O 0.46893 0.75361 0.31388
 O330 O 0.47309 0.70869 0.30632
 O331 O 0.56531 0.74927 0.21779
 O332 O 0.55598 0.79287 0.22031
 O333 O 0.50227 0.71882 0.18456
 O334 O 0.45815 0.72305 0.19400
 O335 O 0.53211 0.68575 0.24804
 O336 O 0.52977 0.69509 0.29159
 Zr337 Zr 0.53036 0.72138 0.26303
 O338 O 0.50891 0.74316 0.28662
 Zr339 Zr 0.48695 0.72062 0.22003
 O340 O 0.46332 0.74200 0.24198
 Zr341 Zr 0.52976 0.76427 0.21952
 O342 O 0.50792 0.78782 0.24101
 Zr343 Zr 0.47164 0.73670 0.27928
 O344 O 0.49308 0.71273 0.25749
 Zr345 Zr 0.51429 0.78046 0.27836
 O346 O 0.53827 0.75876 0.25686
 Zr347 Zr 0.47069 0.77936 0.23554
 O348 O 0.49250 0.75795 0.21154
 O349 O 0.52394 0.72718 0.22592
 O350 O 0.47712 0.77395 0.27280
 C351 C 0.57568 0.73190 0.22995
 C352 C 0.51982 0.67524 0.23083
 C353 C 0.51949 0.73108 0.17413
 C354 C 0.42651 0.77029 0.27063
 C355 C 0.48057 0.77168 0.32356
 C356 C 0.47935 0.82470 0.26919
 H357 H 0.51319 0.73951 0.30388
 H358 H 0.51160 0.80509 0.23683
 H359 H 0.53441 0.71664 0.21551
 H360 H 0.44604 0.73774 0.23853
 H361 H 0.45098 0.69505 0.27009
 H362 H 0.44683 0.69680 0.22901
 H363 H 0.53951 0.81816 0.26359
 H364 H 0.56445 0.79169 0.23636
 H365 H 0.48707 0.71208 0.31740
 H366 H 0.51370 0.68670 0.29054
 H367 H 0.48433 0.81614 0.20848
 H368 H 0.51216 0.79108 0.18477
 H369 H 0.56500 0.73902 0.28997
 H370 H 0.54120 0.76682 0.31530
 H371 H 0.46091 0.73825 0.18442
 H372 H 0.43302 0.76442 0.21036
 O373 O 0.00207 0.68572 0.71927
 O374 O -0.04134 0.69463 0.72171
 O375 O 0.03135 0.74943 0.68524
 O376 O 0.03046 0.79042 0.69195
 O377 O 0.06545 0.71961 0.74902
 O378 O 0.05651 0.72226 0.79248
 O379 O -0.03172 0.81507 0.75316
 O380 O -0.02686 0.80839 0.70994
 O381 O -0.06374 0.75337 0.78235
 O382 O -0.05502 0.70816 0.77958
 O383 O -0.00218 0.78288 0.81473
 O384 O 0.04297 0.78009 0.80606
 O385 O -0.00207 0.81504 0.78264
 O386 O 0.04265 0.80672 0.77997
 O387 O -0.03169 0.75331 0.81465
 O388 O -0.02902 0.70845 0.80624
 O389 O -0.06364 0.78313 0.75297
 O390 O -0.05587 0.77976 0.70848
 O391 O 0.03162 0.68575 0.74894
 O392 O 0.02905 0.69459 0.79236
 O393 O 0.06530 0.74899 0.71920
 O394 O 0.05638 0.79292 0.72364
 O395 O 0.00199 0.71960 0.68537
 O396 O -0.04128 0.72208 0.69413
 Zr397 Zr -0.01314 0.72126 0.72086
 O398 O -0.03670 0.74289 0.74250
 Zr399 Zr 0.03001 0.76447 0.72088
 O400 O 0.00829 0.78811 0.74247
 Zr401 Zr 0.02997 0.72124 0.76416
 O402 O 0.00834 0.74289 0.78775
 Zr403 Zr -0.02893 0.78026 0.73664
 O404 O -0.00733 0.75867 0.71262
 Zr405 Zr -0.02891 0.73696 0.77980
 O406 O -0.00730 0.71299 0.75821
 Zr407 Zr 0.01425 0.78021 0.77985
 O408 O 0.03819 0.75854 0.75825
 O409 O 0.02387 0.72739 0.72705
 O410 O -0.02294 0.77423 0.77390
 C411 C 0.01956 0.67554 0.73141
 C412 C 0.01934 0.73180 0.67510
 C413 C 0.07554 0.73161 0.73140
 C414 C -0.02001 0.82498 0.77108
 C415 C -0.07360 0.77137 0.77077
 C416 C -0.02009 0.77124 0.82462
 H417 H -0.05391 0.73882 0.73857
 H418 H 0.01229 0.73896 0.80503
 H419 H 0.03428 0.71690 0.71653
 H420 H 0.01195 0.80544 0.73851
 H421 H -0.01923 0.80103 0.69517
 H422 H 0.02177 0.80526 0.69776
 H423 H -0.01459 0.71076 0.81701
 H424 H 0.01280 0.68654 0.79130
 H425 H -0.06641 0.76519 0.71089
 H426 H -0.04033 0.73839 0.68616
 H427 H 0.04021 0.76611 0.81732
 H428 H 0.06463 0.73848 0.79137
 H429 H -0.04025 0.68649 0.73793
 H430 H -0.06624 0.71088 0.76556
 H431 H 0.06539 0.79032 0.73922
 H432 H 0.04037 0.81738 0.76545
 O433 O 0.06493 0.03142 0.00257
 O434 O 0.05623 0.02927 -0.04067
 O435 O 0.00135 0.06505 0.03232
 O436 O -0.03931 0.05838 0.03199
 O437 O 0.03173 0.00118 0.06586
 O438 O 0.02898 -0.04194 0.05699
 O439 O -0.06398 -0.00214 -0.03199
 O440 O -0.05736 0.04060 -0.02719
 O441 O -0.00227 -0.03198 -0.06356
 O442 O 0.04209 -0.02998 -0.05513
 O443 O -0.03237 -0.06406 -0.00178
 O444 O -0.03037 -0.05587 0.04267
 O445 O -0.06420 -0.03171 -0.00244
 O446 O -0.05556 -0.02835 0.04326
 O447 O -0.00290 -0.06411 -0.03134
 O448 O 0.04258 -0.05544 -0.02792
 O449 O -0.03194 -0.00258 -0.06359
 O450 O -0.02794 0.04252 -0.05531
 O451 O 0.06511 0.00154 0.03191
 O452 O 0.05596 -0.04225 0.02881
 O453 O 0.00230 0.03089 0.06612
 O454 O -0.04209 0.02624 0.05681
 O455 O 0.03104 0.06516 0.00286
 O456 O 0.02829 0.05632 -0.04088
 Zr457 Zr 0.02948 0.02972 -0.01262
 O458 O 0.00808 0.00797 -0.03637
 Zr459 Zr -0.01349 0.02943 0.03073
 O460 O -0.03716 0.00822 0.00853
 Zr461 Zr 0.02966 -0.01379 0.03029
 O462 O 0.00773 -0.03725 0.00871
 Zr463 Zr -0.02918 0.01401 -0.02877
 O464 O -0.00782 0.03790 -0.00669
 Zr465 Zr 0.01380 -0.02937 -0.02856
 O466 O 0.03779 -0.00766 -0.00701
 Zr467 Zr -0.02952 -0.02915 0.01446
 O468 O -0.00757 -0.00795 0.03863
 O469 O 0.02347 0.02333 0.02443
 O470 O -0.02338 -0.02326 -0.02276
 C471 C 0.07518 0.01923 0.01998
 C472 C 0.01889 0.07529 0.02036
 C473 C 0.01986 0.01875 0.07616
 C474 C -0.07400 -0.02006 -0.02046
 C475 C -0.02019 -0.02042 -0.07353
 C476 C -0.02082 -0.07400 -0.01972
 H477 H 0.01220 0.01187 -0.05360
 H478 H 0.01155 -0.05454 0.01267
 H479 H 0.03397 0.03383 0.03490
 H480 H -0.05445 0.01230 0.01210
 H481 H -0.05033 0.05519 -0.01888
 H482 H -0.05371 0.05318 0.02222
 H483 H 0.03924 -0.06719 -0.01448
 H484 H 0.06454 -0.04053 0.01289
 H485 H -0.01436 0.03909 -0.06682
 H486 H 0.01227 0.06470 -0.03943
 H487 H -0.01532 -0.06588 0.04127
 H488 H 0.01265 -0.04115 0.06486
 H489 H 0.06403 0.01286 -0.04004
 H490 H 0.04058 -0.01495 -0.06521
 H491 H -0.03889 0.01115 0.06642
 H492 H -0.06730 -0.01495 0.03979
 O493 O 0.06451 0.53239 0.50118
 O494 O 0.05523 0.53041 0.45789
 O495 O 0.00086 0.56530 0.53173
 O496 O -0.03987 0.55820 0.53117
 O497 O 0.03186 0.50158 0.56471
 O498 O 0.02968 0.45834 0.55542
 O499 O -0.06450 0.49749 0.46813
 O500 O -0.05821 0.54052 0.47305
 O501 O -0.00294 0.46880 0.43535
 O502 O 0.04198 0.47184 0.44345
 O503 O -0.03148 0.43589 0.49706
 O504 O -0.02861 0.44413 0.54208
 O505 O -0.06391 0.46775 0.49752
 O506 O -0.05503 0.47033 0.54251
 O507 O -0.00227 0.43641 0.46724
 O508 O 0.04271 0.44556 0.46981
 O509 O -0.03301 0.49778 0.43589
 O510 O -0.02966 0.54256 0.44408
 O511 O 0.06519 0.50242 0.53042
 O512 O 0.05672 0.45883 0.52742
 O513 O 0.00211 0.53095 0.56526
 O514 O -0.04194 0.52613 0.55646
 O515 O 0.03026 0.56587 0.50199
 O516 O 0.02725 0.55739 0.45837
 Zr517 Zr 0.02888 0.53051 0.48632
 O518 O 0.00740 0.50872 0.46266
 Zr519 Zr -0.01372 0.52954 0.52999
 O520 O -0.03730 0.50799 0.50808
 Zr521 Zr 0.02992 0.48680 0.52902
 O522 O 0.00825 0.46317 0.50740
 Zr523 Zr -0.02986 0.51415 0.47075
 O524 O -0.00847 0.53822 0.49258
 Zr525 Zr 0.01374 0.47142 0.47011
 O526 O 0.03765 0.49320 0.49167
 Zr527 Zr -0.02901 0.47068 0.51368
 O528 O -0.00728 0.49220 0.53771
 O529 O 0.02328 0.52388 0.52341
 O530 O -0.02345 0.47692 0.47642
 C531 C 0.07503 0.52018 0.51843
 C532 C 0.01818 0.57578 0.51966
 C533 C 0.01976 0.51889 0.57518
 C534 C -0.07413 0.47941 0.47978
 C535 C -0.02118 0.48014 0.42570
 C536 C -0.01991 0.42619 0.47898
 H537 H 0.01125 0.51278 0.44541
 H538 H 0.01239 0.44592 0.51119
 H539 H 0.03376 0.53441 0.53387
 H540 H -0.05459 0.51178 0.51192
 H541 H -0.05105 0.55524 0.48100
 H542 H -0.05455 0.55253 0.52211
 H543 H 0.04026 0.43424 0.48380
 H544 H 0.06478 0.46035 0.51120
 H545 H -0.01565 0.53987 0.43291
 H546 H 0.01097 0.56527 0.45972
 H547 H -0.01421 0.43342 0.53950
 H548 H 0.01348 0.45901 0.56356
 H549 H 0.06326 0.51412 0.45841
 H550 H 0.03934 0.48625 0.43272
 H551 H -0.03888 0.51069 0.56555
 H552 H -0.06617 0.48445 0.54010
 O553 O 0.50187 0.06521 0.53081
 O554 O 0.45858 0.05683 0.52836
 O555 O 0.53044 0.00153 0.56569
 O556 O 0.52937 -0.03936 0.55945
 O557 O 0.56503 0.03062 0.50186
 O558 O 0.55653 0.02760 0.45855
 O559 O 0.46658 -0.06397 0.49809
 O560 O 0.47099 -0.05697 0.54102
 O561 O 0.43587 -0.00215 0.46751
 O562 O 0.44479 0.04240 0.46935
 O563 O 0.49758 -0.03307 0.43636
 O564 O 0.54218 -0.03112 0.44535
 O565 O 0.49648 -0.06469 0.46895
 O566 O 0.54172 -0.05672 0.47245
 O567 O 0.46837 -0.00324 0.43569
 O568 O 0.47196 0.04223 0.44398
 O569 O 0.43526 -0.03158 0.49720
 O570 O 0.44291 -0.02748 0.54215
 O571 O 0.53159 0.06463 0.50139
 O572 O 0.52902 0.05521 0.45785
 O573 O 0.56452 0.00151 0.53195
 O574 O 0.55488 -0.04270 0.52779
 O575 O 0.50148 0.03170 0.56508
 O576 O 0.45797 0.02929 0.55586
 Zr577 Zr 0.48636 0.02981 0.52947
 O578 O 0.46270 0.00836 0.50768
 Zr579 Zr 0.52905 -0.01378 0.53021
 O580 O 0.50703 -0.03742 0.50882
 Zr581 Zr 0.52968 0.02900 0.48648
 O582 O 0.50812 0.00717 0.46294
 Zr583 Zr 0.46984 -0.02900 0.51410
 O584 O 0.49171 -0.00755 0.53811
 Zr585 Zr 0.47092 0.01368 0.47036
 O586 O 0.49249 0.03766 0.49207
 Zr587 Zr 0.51346 -0.03011 0.47144
 O588 O 0.53752 -0.00831 0.49286
 O589 O 0.52332 0.02328 0.52361
 O590 O 0.47631 -0.02357 0.47684
 C591 C 0.51953 0.07510 0.51873
 C592 C 0.51865 0.01941 0.57558
 C593 C 0.57493 0.01876 0.51968
 C594 C 0.47828 -0.07423 0.48041
 C595 C 0.42563 -0.01989 0.47915
 C596 C 0.47993 -0.02137 0.42608
 H597 H 0.44551 0.01270 0.51134
 H598 H 0.51230 0.01083 0.44566
 H599 H 0.53378 0.03379 0.53411
 H600 H 0.51039 -0.05474 0.51308
 H601 H 0.47896 -0.04976 0.55571
 H602 H 0.51993 -0.05391 0.55404
 H603 H 0.48567 0.03884 0.43260
 H604 H 0.51306 0.06375 0.45902
 H605 H 0.43199 -0.01337 0.53884
 H606 H 0.45901 0.01321 0.56427
 H607 H 0.54042 -0.01662 0.43456
 H608 H 0.56432 0.01123 0.45973
 H609 H 0.45953 0.06451 0.51190
 H610 H 0.43429 0.04085 0.48407
 H611 H 0.56441 -0.04002 0.51256
 H612 H 0.53848 -0.06782 0.48646
 O613 O 0.50169 0.56487 0.03091
 O614 O 0.45825 0.55590 0.02871
 O615 O 0.53123 0.50124 0.06488
 O616 O 0.53048 0.46029 0.05825
 O617 O 0.56477 0.53109 0.00077
 O618 O 0.55544 0.52827 -0.04260
 O619 O 0.46760 0.43536 -0.00242
 O620 O 0.47284 0.44218 0.04072
 O621 O 0.43536 0.49682 -0.03167
 O622 O 0.44401 0.54213 -0.02896
 O623 O 0.49670 0.46755 -0.06433
 O624 O 0.54181 0.47024 -0.05592
 O625 O 0.49691 0.43539 -0.03216
 O626 O 0.54174 0.44377 -0.02969
 O627 O 0.46717 0.49707 -0.06416
 O628 O 0.46972 0.54185 -0.05582
 O629 O 0.43571 0.46715 -0.00222
 O630 O 0.44389 0.47083 0.04232
 O631 O 0.53097 0.56481 0.00104
 O632 O 0.52792 0.55587 -0.04237
 O633 O 0.56493 0.50179 0.03067
 O634 O 0.55598 0.45777 0.02637
 O635 O 0.50184 0.53101 0.06486
 O636 O 0.45853 0.52852 0.05634
 Zr637 Zr 0.48644 0.52930 0.02946
 O638 O 0.46269 0.50756 0.00804
 Zr639 Zr 0.52964 0.48618 0.02927
 O640 O 0.50771 0.46243 0.00791
 Zr641 Zr 0.52916 0.52930 -0.01411
 O642 O 0.50734 0.50753 -0.03748
 Zr643 Zr 0.47053 0.47023 0.01396
 O644 O 0.49236 0.49192 0.03775
 Zr645 Zr 0.47016 0.51341 -0.02932
 O646 O 0.49195 0.53749 -0.00794
 Zr647 Zr 0.51333 0.47024 -0.02953
 O648 O 0.53746 0.49203 -0.00817
 O649 O 0.52340 0.52322 0.02305
 O650 O 0.47620 0.47616 -0.02336
 C651 C 0.51908 0.57504 0.01865
 C652 C 0.51926 0.51885 0.07506
 C653 C 0.57504 0.51917 0.01836
 C654 C 0.47910 0.42544 -0.02043
 C655 C 0.42561 0.47881 -0.02002
 C656 C 0.47874 0.47919 -0.07417
 H657 H 0.44552 0.51160 0.01206
 H658 H 0.51115 0.51143 -0.05479
 H659 H 0.53390 0.53375 0.03350
 H660 H 0.51141 0.44511 0.01190
 H661 H 0.48063 0.44958 0.05541
 H662 H 0.52161 0.44548 0.05260
 H663 H 0.48420 0.53971 -0.06652
 H664 H 0.51174 0.56399 -0.04112
 H665 H 0.43311 0.48519 0.03973
 H666 H 0.45947 0.51220 0.06429
 H667 H 0.53913 0.48435 -0.06704
 H668 H 0.56361 0.51208 -0.04147
 H669 H 0.45919 0.56397 0.01244
 H670 H 0.43283 0.53932 -0.01495
 H671 H 0.56488 0.46039 0.01075
 H672 H 0.53947 0.43305 -0.01521
 O673 O 0.78161 0.31427 0.49799
 O674 O 0.77935 0.30565 0.54119
 O675 O 0.81513 0.25042 0.46840
 O676 O 0.80839 0.20964 0.46889
 O677 O 0.75170 0.28086 0.43443
 O678 O 0.70861 0.27828 0.44299
 O679 O 0.74766 0.18535 0.53241
 O680 O 0.79029 0.19182 0.52795
 O681 O 0.71791 0.24745 0.56368
 O682 O 0.72016 0.29192 0.55512
 O683 O 0.68602 0.21725 0.50172
 O684 O 0.69444 0.21888 0.45736
 O685 O 0.71825 0.18511 0.50269
 O686 O 0.72176 0.19356 0.45703
 O687 O 0.68593 0.24691 0.53121
 O688 O 0.69478 0.29229 0.52790
 O689 O 0.74717 0.21765 0.56400
 O690 O 0.79221 0.22141 0.55596
 O691 O 0.75196 0.31444 0.46841
 O692 O 0.70823 0.30540 0.47110
 O693 O 0.78126 0.25129 0.43443
 O694 O 0.77642 0.20686 0.44377
 O695 O 0.81518 0.28031 0.49779
 O696 O 0.80626 0.27756 0.54151
 Zr697 Zr 0.77979 0.27879 0.51313
 O698 O 0.75791 0.25754 0.53676
 Zr699 Zr 0.77956 0.23560 0.46984
 O700 O 0.75821 0.21205 0.49194
 Zr701 Zr 0.73657 0.27897 0.46990
 O702 O 0.71300 0.25718 0.49137
 Zr703 Zr 0.76385 0.22017 0.52926
 O704 O 0.78787 0.24139 0.50731
 Zr705 Zr 0.72071 0.26338 0.52867
 O706 O 0.74255 0.28725 0.50723
 Zr707 Zr 0.72097 0.21979 0.48576
 O708 O 0.74231 0.24161 0.46167
 O709 O 0.77355 0.27267 0.47604
 O710 O 0.72669 0.22607 0.52301
 C711 C 0.76957 0.32451 0.48050
 C712 C 0.82530 0.26808 0.48033
 C713 C 0.76925 0.26888 0.42427
 C714 C 0.72982 0.17531 0.52076
 C715 C 0.72939 0.22955 0.57380
 C716 C 0.67602 0.22901 0.51950
 H717 H 0.76174 0.26173 0.55400
 H718 H 0.69578 0.26106 0.48727
 H719 H 0.78408 0.28315 0.46562
 H720 H 0.76224 0.19470 0.48842
 H721 H 0.80489 0.19875 0.51966
 H722 H 0.80305 0.19522 0.47854
 H723 H 0.68325 0.28910 0.51422
 H724 H 0.70988 0.31406 0.48702
 H725 H 0.78884 0.23513 0.56738
 H726 H 0.81465 0.26151 0.54004
 H727 H 0.68459 0.23407 0.45857
 H728 H 0.70941 0.26189 0.43513
 H729 H 0.76300 0.31350 0.54048
 H730 H 0.73497 0.29024 0.56547
 H731 H 0.76139 0.21006 0.43408
 H732 H 0.73516 0.18183 0.46054
 O733 O 0.74903 0.68575 0.03098
 O734 O 0.79213 0.69490 0.02913
 O735 O 0.71858 0.74951 0.06405
 O736 O 0.71867 0.79021 0.05711
 O737 O 0.68570 0.71838 0.00005
 O738 O 0.69498 0.72087 -0.04313
 O739 O 0.78224 0.81503 -0.00303
 O740 O 0.77716 0.80862 0.03985
 O741 O 0.81484 0.75351 -0.03205
 O742 O 0.80670 0.70858 -0.02957
 O743 O 0.75317 0.78245 -0.06504
 O744 O 0.70855 0.77984 -0.05714
 O745 O 0.75302 0.81467 -0.03295
 O746 O 0.70776 0.80570 -0.03022
 O747 O 0.78302 0.75327 -0.06461
 O748 O 0.78034 0.70802 -0.05585
 O749 O 0.81427 0.78343 -0.00281
 O750 O 0.80583 0.77974 0.04203
 O751 O 0.71995 0.68512 0.00085
 O752 O 0.72310 0.69387 -0.04282
 O753 O 0.68507 0.74808 0.02959
 O754 O 0.69387 0.79243 0.02482
 O755 O 0.74822 0.72000 0.06457
 O756 O 0.79181 0.72296 0.05614
 Zr757 Zr 0.76386 0.72142 0.02924
 O758 O 0.78750 0.74299 0.00765
 Zr759 Zr 0.72023 0.76410 0.02834
 O760 O 0.74220 0.78784 0.00711
 Zr761 Zr 0.72132 0.72053 -0.01463
 O762 O 0.74290 0.74244 -0.03804
 Zr763 Zr 0.77943 0.78028 0.01336
 O764 O 0.75754 0.75879 0.03717
 Zr765 Zr 0.78010 0.73688 -0.02975
 O766 O 0.75859 0.71280 -0.00815
 Zr767 Zr 0.73666 0.77976 -0.03028
 O768 O 0.71262 0.75780 -0.00908
 O769 O 0.72687 0.72706 0.02251
 O770 O 0.77382 0.77410 -0.02395
 C771 C 0.73186 0.67524 0.01867
 C772 C 0.73063 0.73213 0.07449
 C773 C 0.67522 0.73039 0.01744
 C774 C 0.77076 0.82477 -0.02115
 C775 C 0.82448 0.77167 -0.02049
 C776 C 0.77128 0.77100 -0.07474
 H777 H 0.80470 0.73908 0.01175
 H778 H 0.73913 0.73841 -0.05534
 H779 H 0.71645 0.71653 0.03299
 H780 H 0.73840 0.80515 0.01101
 H781 H 0.76905 0.80146 0.05446
 H782 H 0.72805 0.80480 0.05175
 H783 H 0.76651 0.71069 -0.06731
 H784 H 0.73924 0.68572 -0.04118
 H785 H 0.81721 0.76593 0.03907
 H786 H 0.79031 0.73915 0.06428
 H787 H 0.71062 0.76501 -0.06743
 H788 H 0.68687 0.73711 -0.04241
 H789 H 0.79170 0.68700 0.01275
 H790 H 0.81721 0.71092 -0.01493
 H791 H 0.68461 0.78919 0.00950
 H792 H 0.71064 0.81726 -0.01648
 O793 O 1.00237 0.18428 0.21853
 O794 O 0.95918 0.19294 0.22073
 O795 O 1.03189 0.24789 0.18460
 O796 O 1.03136 0.28873 0.19113
 O797 O 1.06560 0.21790 0.24855
 O798 O 1.05685 0.22071 0.29173
 O799 O 0.96803 0.31346 0.25187
 O800 O 0.97276 0.30677 0.20903
 O801 O 0.93657 0.25167 0.28172
 O802 O 0.94502 0.20714 0.27977
 O803 O 0.99833 0.28190 0.31378
 O804 O 1.04283 0.27984 0.30535
 O805 O 0.99761 0.31377 0.28142
 O806 O 1.04302 0.30537 0.27813
 O807 O 0.96884 0.25230 0.31394
 O808 O 0.97206 0.20685 0.30535
 O809 O 0.93647 0.28132 0.25224
 O810 O 0.94454 0.27737 0.20726
 O811 O 1.03180 0.18429 0.24834
 O812 O 1.02887 0.19349 0.29204
 O813 O 1.06571 0.24730 0.21875
 O814 O 1.05647 0.29164 0.22315
 O815 O 1.00248 0.21809 0.18463
 O816 O 0.95894 0.22076 0.19350
 Zr817 Zr 0.98719 0.21977 0.22011
 O818 O 0.96358 0.24125 0.24181
 Zr819 Zr 1.03039 0.26295 0.22018
 O820 O 1.00838 0.28666 0.24143
 Zr821 Zr 1.03016 0.21983 0.26356
 O822 O 1.00868 0.24175 0.28701
 Zr823 Zr 0.97117 0.27859 0.23570
 O824 O 0.99304 0.25714 0.21180
 Zr825 Zr 0.97148 0.23560 0.27917
 O826 O 0.99293 0.21156 0.25751
 Zr827 Zr 1.01442 0.27907 0.27883
 O828 O 1.03844 0.25714 0.25758
 O829 O 1.02418 0.22591 0.22642
 O830 O 0.97726 0.27285 0.27299
 C831 C 1.01982 0.17411 0.23071
 C832 C 1.01991 0.23026 0.17443
 C833 C 1.07580 0.22980 0.23095
 C834 C 0.97959 0.32353 0.26979
 C835 C 0.92659 0.26956 0.27009
 C836 C 0.98050 0.27027 0.32380
 H837 H 0.94639 0.23708 0.23794
 H838 H 1.01269 0.23795 0.30430
 H839 H 1.03460 0.21539 0.21594
 H840 H 1.01194 0.30398 0.23733
 H841 H 0.98088 0.29965 0.19440
 H842 H 1.02189 0.30326 0.19645
 H843 H 0.98570 0.21006 0.31690
 H844 H 1.01293 0.18492 0.29045
 H845 H 0.93327 0.26353 0.21052
 H846 H 0.96027 0.23684 0.18514
 H847 H 1.04113 0.26504 0.31572
 H848 H 1.06474 0.23706 0.29084
 H849 H 0.95994 0.18511 0.23713
 H850 H 0.93479 0.20874 0.26485
 H851 H 1.06592 0.28868 0.23841
 H852 H 1.03972 0.31686 0.26445
 O853 O 0.74777 1.06506 0.71933
 O854 O 0.79124 1.05636 0.72182
 O855 O 0.71876 1.00140 0.68500
 O856 O 0.72013 0.96025 0.69157
 O857 O 0.68450 1.03083 0.74863
 O858 O 0.69337 1.02804 0.79217
 O859 O 0.78235 0.93597 0.75299
 O860 O 0.77740 0.94255 0.70981
 O861 O 0.81389 0.99788 0.78234
 O862 O 0.80477 1.04313 0.77952
 O863 O 0.75267 0.96796 0.81455
 O864 O 0.70735 0.97051 0.80568
 O865 O 0.75270 0.93577 0.78239
 O866 O 0.70802 0.94367 0.77976
 O867 O 0.78192 0.99779 0.81458
 O868 O 0.77897 1.04250 0.80630
 O869 O 0.81402 0.96815 0.75290
 O870 O 0.80616 0.97144 0.70837
 O871 O 0.71818 1.06483 0.74889
 O872 O 0.72062 1.05594 0.79228
 O873 O 0.68484 1.00144 0.71877
 O874 O 0.69399 0.95761 0.72313
 O875 O 0.74796 1.03139 0.68535
 O876 O 0.79124 1.02897 0.69412
 Zr877 Zr 0.76314 1.02962 0.72083
 O878 O 0.78682 1.00815 0.74247
 Zr879 Zr 0.72024 0.98618 0.72057
 O880 O 0.74210 0.96267 0.74223
 Zr881 Zr 0.71996 1.02933 0.76398
 O882 O 0.74176 1.00785 0.78760
 Zr883 Zr 0.77928 0.97074 0.73650
 O884 O 0.75755 0.99220 0.71245
 Zr885 Zr 0.77896 1.01406 0.77975
 O886 O 0.75718 1.03786 0.75816
 Zr887 Zr 0.73614 0.97050 0.77963
 O888 O 0.71203 0.99197 0.75796
 O889 O 0.72616 1.02326 0.72689
 O890 O 0.77326 0.97674 0.77376
 C891 C 0.73022 1.07511 0.73142
 C892 C 0.73064 1.01918 0.67499
 C893 C 0.67449 1.01880 0.73092
 C894 C 0.77072 0.92597 0.77087
 C895 C 0.82389 0.97997 0.77074
 C896 C 0.77050 0.97977 0.82450
 H897 H 0.80401 1.01234 0.73859
 H898 H 0.73778 1.01176 0.80487
 H899 H 0.71570 1.03373 0.71639
 H900 H 0.73856 0.94531 0.73823
 H901 H 0.76969 0.94982 0.69503
 H902 H 0.72870 0.94538 0.69749
 H903 H 0.76444 1.04022 0.81690
 H904 H 0.73682 1.06408 0.79134
 H905 H 0.81661 0.98608 0.71083
 H906 H 0.79032 1.01269 0.68606
 H907 H 0.71016 0.98435 0.81713
 H908 H 0.68533 1.01178 0.79091
 H909 H 0.79004 1.06457 0.73802
 H910 H 0.81622 1.04030 0.76573
 H911 H 0.68507 0.96005 0.73877
 H912 H 0.71016 0.93326 0.76502
 O913 O 0.68559 0.53152 0.24759
 O914 O 0.69463 0.52919 0.29100
 O915 O 0.74914 0.56548 0.21802
 O916 O 0.79006 0.55872 0.21888
 O917 O 0.71906 0.50181 0.18391
 O918 O 0.72165 0.45842 0.19278
 O919 O 0.81455 0.49746 0.28145
 O920 O 0.80817 0.54059 0.27646
 O921 O 0.75294 0.46842 0.31337
 O922 O 0.70785 0.47120 0.30459
 O923 O 0.78220 0.43595 0.25170
 O924 O 0.77951 0.44468 0.20646
 O925 O 0.81444 0.46797 0.25176
 O926 O 0.80614 0.47074 0.20683
 O927 O 0.75271 0.43607 0.28124
 O928 O 0.70802 0.44458 0.27856
 O929 O 0.78271 0.49776 0.31332
 O930 O 0.77947 0.54231 0.30537
 O931 O 0.68542 0.50189 0.21795
 O932 O 0.69421 0.45843 0.22040
 O933 O 0.74852 0.53154 0.18399
 O934 O 0.79239 0.52702 0.19293
 O935 O 0.71945 0.56537 0.24747
 O936 O 0.72217 0.55663 0.29087
 Zr937 Zr 0.72111 0.52992 0.26269
 O938 O 0.74263 0.50823 0.28629
 Zr939 Zr 0.76408 0.52984 0.21937
 O940 O 0.78766 0.50822 0.24119
 Zr941 Zr 0.72082 0.48664 0.21946
 O942 O 0.74242 0.46302 0.24112
 Zr943 Zr 0.77991 0.51406 0.27850
 O944 O 0.75844 0.53811 0.25681
 Zr945 Zr 0.73656 0.47095 0.27845
 O946 O 0.71268 0.49261 0.25681
 Zr947 Zr 0.77968 0.47086 0.23526
 O948 O 0.75806 0.49247 0.21123
 O949 O 0.72708 0.52372 0.22557
 O950 O 0.77377 0.47681 0.27251
 C951 C 0.67532 0.51939 0.23012
 C952 C 0.73158 0.57562 0.23006
 C953 C 0.73107 0.51940 0.17375
 C954 C 0.82438 0.47949 0.26978
 C955 C 0.77091 0.48001 0.32330
 C956 C 0.77053 0.42606 0.26961
 H957 H 0.73860 0.51216 0.30353
 H958 H 0.73843 0.44576 0.23715
 H959 H 0.71659 0.53424 0.21515
 H960 H 0.80497 0.51216 0.23754
 H961 H 0.80094 0.55536 0.26870
 H962 H 0.80487 0.55289 0.22760
 H963 H 0.71025 0.43383 0.26408
 H964 H 0.68614 0.45954 0.23665
 H965 H 0.76505 0.53982 0.31606
 H966 H 0.73840 0.56469 0.28978
 H967 H 0.76544 0.43353 0.20912
 H968 H 0.73787 0.45945 0.18471
 H969 H 0.68648 0.51296 0.29000
 H970 H 0.71062 0.48520 0.31585
 H971 H 0.78974 0.51142 0.18394
 H972 H 0.81687 0.48520 0.20920
 O973 O 0.56431 0.21748 0.74887
 O974 O 0.55515 0.21935 0.79219
 O975 O 0.50059 0.18464 0.71821
 O976 O 0.45992 0.19167 0.71858
 O977 O 0.53167 0.24855 0.68553
 O978 O 0.52943 0.29173 0.69495
 O979 O 0.43539 0.25216 0.78210
 O980 O 0.44161 0.20914 0.77695
 O981 O 0.49701 0.28077 0.81494
 O982 O 0.54182 0.27794 0.80692
 O983 O 0.46831 0.31381 0.75322
 O984 O 0.47099 0.30576 0.70827
 O985 O 0.43591 0.28198 0.75280
 O986 O 0.44470 0.27936 0.70768
 O987 O 0.49755 0.31326 0.78310
 O988 O 0.54259 0.30417 0.78051
 O989 O 0.46699 0.25171 0.81431
 O990 O 0.47029 0.20692 0.80585
 O991 O 0.56494 0.24758 0.71975
 O992 O 0.55647 0.29121 0.72308
 O993 O 0.50193 0.21912 0.68479
 O994 O 0.45778 0.22390 0.69357
 O995 O 0.53004 0.18400 0.74798
 O996 O 0.52716 0.19233 0.79164
 Zr997 Zr 0.52872 0.21930 0.76376
 O998 O 0.50728 0.24096 0.78748
 Zr999 Zr 0.48606 0.22037 0.72004
 O1000 O 0.46249 0.24175 0.74203
 Zr1001 Zr 0.52970 0.26318 0.72125
 O1002 O 0.50802 0.28667 0.74290
 Zr1003 Zr 0.47000 0.23550 0.77936
 O1004 O 0.49136 0.21156 0.75742
 Zr1005 Zr 0.51360 0.27830 0.78017
 O1006 O 0.53749 0.25663 0.75857
 Zr1007 Zr 0.47075 0.27908 0.73655
 O1008 O 0.49249 0.25774 0.71246
 O1009 O 0.52305 0.22607 0.72671
 O1010 O 0.47640 0.27274 0.77380
 C1011 C 0.57478 0.22975 0.73164
 C1012 C 0.51793 0.17415 0.73026
 C1013 C 0.51961 0.23123 0.67498
 C1014 C 0.42575 0.27029 0.77054
 C1015 C 0.47883 0.26934 0.82456
 C1016 C 0.47989 0.32346 0.77135
 H1017 H 0.51117 0.23684 0.80472
 H1018 H 0.51214 0.30394 0.73917
 H1019 H 0.53350 0.21558 0.71623
 H1020 H 0.44519 0.23794 0.73818
 H1021 H 0.44871 0.19448 0.76888
 H1022 H 0.44530 0.19720 0.72778
 H1023 H 0.54004 0.31562 0.76664
 H1024 H 0.56466 0.28951 0.73923
 H1025 H 0.48428 0.20963 0.81709
 H1026 H 0.51088 0.18440 0.79022
 H1027 H 0.48553 0.31634 0.71075
 H1028 H 0.51323 0.29104 0.68676
 H1029 H 0.56321 0.23564 0.79170
 H1030 H 0.53938 0.26332 0.81741
 H1031 H 0.46093 0.23931 0.68445
 H1032 H 0.43340 0.26538 0.71022
 O1033 O 0.18470 0.71972 0.50186
 O1034 O 0.19306 0.72242 0.45852
 O1035 O 0.24828 0.68481 0.53040
 O1036 O 0.28905 0.69106 0.52968
 O1037 O 0.21924 0.74851 0.56548
 O1038 O 0.22221 0.79185 0.55709
 O1039 O 0.31367 0.75235 0.46702
 O1040 O 0.30659 0.70947 0.47125
 O1041 O 0.25208 0.78310 0.43614
 O1042 O 0.20741 0.78111 0.44509
 O1043 O 0.28283 0.81411 0.49817
 O1044 O 0.28091 0.80515 0.54279
 O1045 O 0.31438 0.78152 0.49702
 O1046 O 0.30634 0.77792 0.54242
 O1047 O 0.25305 0.81485 0.46885
 O1048 O 0.20783 0.80674 0.47212
 O1049 O 0.28145 0.75342 0.43554
 O1050 O 0.27719 0.70846 0.44299
 O1051 O 0.18524 0.74906 0.53178
 O1052 O 0.19466 0.79258 0.52950
 O1053 O 0.24827 0.71843 0.56487
 O1054 O 0.29236 0.72263 0.55533
 O1055 O 0.21819 0.68552 0.50128
 O1056 O 0.22049 0.69488 0.45781
 Zr1057 Zr 0.22003 0.72115 0.48642
 O1058 O 0.24148 0.74293 0.46283
 Zr1059 Zr 0.26351 0.72029 0.52935
 O1060 O 0.28713 0.74168 0.50742
 Zr1061 Zr 0.22082 0.76397 0.53008
 O1062 O 0.24263 0.78753 0.50858
 Zr1063 Zr 0.27875 0.73645 0.47011
 O1064 O 0.25730 0.71246 0.49186
 Zr1065 Zr 0.23618 0.78021 0.47122
 O1066 O 0.21222 0.75852 0.49273
 Zr1067 Zr 0.27984 0.77903 0.51398
 O1068 O 0.25806 0.75759 0.53797
 O1069 O 0.22652 0.72688 0.52354
 O1070 O 0.27334 0.77369 0.47670
 C1071 C 0.17480 0.73175 0.51957
 C1072 C 0.23048 0.67498 0.51844
 C1073 C 0.23111 0.73070 0.57537
 C1074 C 0.32392 0.77003 0.47879
 C1075 C 0.26981 0.77148 0.42591
 C1076 C 0.27116 0.82442 0.48049
 H1077 H 0.23717 0.73930 0.44558
 H1078 H 0.23899 0.80479 0.51283
 H1079 H 0.21604 0.71635 0.53395
 H1080 H 0.30441 0.73741 0.51082
 H1081 H 0.29935 0.69478 0.47914
 H1082 H 0.30355 0.69645 0.52021
 H1083 H 0.21096 0.81781 0.48619
 H1084 H 0.18622 0.79153 0.51342
 H1085 H 0.26323 0.71191 0.43191
 H1086 H 0.23656 0.68651 0.45876
 H1087 H 0.26635 0.81583 0.54113
 H1088 H 0.23856 0.79067 0.56491
 H1089 H 0.18540 0.73886 0.45957
 H1090 H 0.20925 0.76668 0.43421
 H1091 H 0.28969 0.73785 0.56493
 H1092 H 0.31750 0.76401 0.53907
 O1093 O 0.24810 0.18448 1.03267
 O1094 O 0.29144 0.19357 1.03047
 O1095 O 0.21806 0.24804 1.06597
 O1096 O 0.21874 0.28897 1.05921
 O1097 O 0.18484 0.21756 1.00205
 O1098 O 0.19406 0.22000 0.95876
 O1099 O 0.28164 0.31378 0.99852
 O1100 O 0.27655 0.30734 1.04157
 O1101 O 0.31401 0.25216 0.96957
 O1102 O 0.30565 0.20705 0.97235
 O1103 O 0.25247 0.28114 0.93676
 O1104 O 0.20753 0.27841 0.94500
 O1105 O 0.25226 0.31346 0.96877
 O1106 O 0.20729 0.30479 0.97138
 O1107 O 0.28212 0.25175 0.93710
 O1108 O 0.27957 0.20680 0.94578
 O1109 O 0.31361 0.28207 0.99884
 O1110 O 0.30540 0.27860 1.04354
 O1111 O 0.21885 0.18405 1.00270
 O1112 O 0.22191 0.19272 0.95910
 O1113 O 0.18447 0.24718 1.03167
 O1114 O 0.19333 0.29129 1.02716
 O1115 O 0.24769 0.21852 1.06627
 O1116 O 0.29112 0.22137 1.05781
 Zr1117 Zr 0.26316 0.22008 1.03092
 O1118 O 0.28678 0.24169 1.00934
 Zr1119 Zr 0.21972 0.26294 1.03033
 O1120 O 0.24158 0.28664 1.00893
 Zr1121 Zr 0.22043 0.21946 0.98725
 O1122 O 0.24205 0.24123 0.96378
 Zr1123 Zr 0.27881 0.27903 1.01505
 O1124 O 0.25704 0.25748 1.03895
 Zr1125 Zr 0.27926 0.23555 0.97200
 O1126 O 0.25768 0.21152 0.99356
 Zr1127 Zr 0.23593 0.27856 0.97154
 O1128 O 0.21192 0.25674 0.99292
 O1129 O 0.22617 0.22590 1.02436
 O1130 O 0.27309 0.27281 0.97777
 C1131 C 0.23076 0.17409 1.02048
 C1132 C 0.23009 0.23055 1.07627
 C1133 C 0.17448 0.22959 1.01949
 C1134 C 0.27008 0.32355 0.98045
 C1135 C 0.32371 0.27030 0.98112
 C1136 C 0.27047 0.26954 0.92700
 H1137 H 0.30398 0.23775 1.01340
 H1138 H 0.23823 0.23720 0.94649
 H1139 H 0.21571 0.21540 1.03483
 H1140 H 0.23783 0.30397 1.01283
 H1141 H 0.26866 0.30012 1.05626
 H1142 H 0.22765 0.30375 1.05357
 H1143 H 0.26534 0.20911 0.93475
 H1144 H 0.23805 0.18456 0.96061
 H1145 H 0.31644 0.26447 1.04084
 H1146 H 0.28988 0.23765 1.06583
 H1147 H 0.21004 0.26404 0.93417
 H1148 H 0.18596 0.23624 0.95960
 H1149 H 0.29061 0.18543 1.01422
 H1150 H 0.31653 0.20970 0.98665
 H1151 H 0.18432 0.28841 1.01162
 H1152 H 0.20981 0.31589 0.98555
 C1153 C 0.26385 0.37794 0.78080
 C1154 C 0.28585 0.36331 0.77023
 C1155 C 0.29556 0.35957 0.79649
 C1156 C 0.27371 0.37385 0.80719
 C1157 C 0.31078 0.38328 0.79480
 C1158 C 0.30099 0.38734 0.76843
 C1159 C 0.27911 0.40160 0.77912
 C1160 C 0.28885 0.39780 0.80536
 H1161 H 0.24445 0.37602 0.77491
 H1162 H 0.28474 0.34884 0.75589
 H1163 H 0.26257 0.36816 0.82327
 H1164 H 0.33017 0.38519 0.80071
 H1165 H 0.31217 0.39311 0.75241
 H1166 H 0.29001 0.41235 0.81960
 C1167 C 0.30421 -0.10350 0.28760
 C1168 C 0.29414 -0.11777 0.30996
 C1169 C 0.29584 -0.14166 0.29501
 C1170 C 0.30607 -0.12765 0.27273
 C1171 C 0.26946 -0.13837 0.28561
 C1172 C 0.26765 -0.11411 0.30045
 C1173 C 0.27784 -0.10009 0.27815
 C1174 C 0.27954 -0.12395 0.26317
 H1175 H 0.31836 -0.08885 0.28833
 H1176 H 0.30028 -0.11538 0.32927
 H1177 H 0.32200 -0.13330 0.26139
 H1178 H 0.25528 -0.15299 0.28492
 H1179 H 0.25176 -0.10835 0.31179
 H1180 H 0.27339 -0.12622 0.24385
 C1181 C 0.78134 0.87788 0.76451
 C1182 C 0.80771 0.87392 0.77441
 C1183 C 0.79704 0.85973 0.79638
 C1184 C 0.77084 0.86331 0.78664
 C1185 C 0.79529 0.88347 0.81155
 C1186 C 0.80578 0.89794 0.78950
 C1187 C 0.77958 0.90161 0.77971
 C1188 C 0.76897 0.88740 0.80170
 H1189 H 0.77548 0.87586 0.74508
 H1190 H 0.82376 0.86827 0.76324
 H1191 H 0.75657 0.84880 0.78557
 H1192 H 0.80118 0.88552 0.83098
 H1193 H 0.81993 0.91254 0.79059
 H1194 H 0.75297 0.89316 0.81289
 C1195 C 0.48586 0.87275 0.27958
 C1196 C 0.46386 0.88747 0.26906
 C1197 C 0.45426 0.89117 0.29534
 C1198 C 0.47610 0.87682 0.30601
 C1199 C 0.43894 0.86753 0.29358
 C1200 C 0.44865 0.86347 0.26719
 C1201 C 0.47051 0.84913 0.27783
 C1202 C 0.46087 0.85292 0.30409
 H1203 H 0.50524 0.87461 0.27369
 H1204 H 0.46500 0.90195 0.25476
 H1205 H 0.48735 0.88239 0.32209
 H1206 H 0.41956 0.86562 0.29950
 H1207 H 0.43742 0.85775 0.25115
 H1208 H 0.45970 0.83836 0.31829
 C1209 C -0.05480 0.85329 0.78968
 C1210 C -0.04417 0.86774 0.81171
 C1211 C -0.04580 0.89148 0.79654
 C1212 C -0.05657 0.87728 0.77458
 C1213 C -0.01964 0.88767 0.78681
 C1214 C -0.01790 0.86360 0.80190
 C1215 C -0.02865 0.84942 0.77991
 C1216 C -0.03027 0.87312 0.76470
 H1217 H -0.06906 0.83880 0.79077
 H1218 H -0.05003 0.86582 0.83114
 H1219 H -0.07261 0.88305 0.76342
 H1220 H -0.00529 0.90209 0.78576
 H1221 H -0.00192 0.85777 0.81310
 H1222 H -0.02444 0.87505 0.74527
 C1223 C -0.03909 -0.10200 -0.05496
 C1224 C -0.02389 -0.12590 -0.05688
 C1225 C -0.04583 -0.14029 -0.04648
 C1226 C -0.06111 -0.11666 -0.04473
 C1227 C -0.03637 -0.13675 -0.02010
 C1228 C -0.01428 -0.12199 -0.03035
 C1229 C -0.02959 -0.09838 -0.02859
 C1230 C -0.05155 -0.11276 -0.01822
 H1231 H -0.04013 -0.08736 -0.06908
 H1232 H -0.01256 -0.13140 -0.07290
 H1233 H -0.08045 -0.11472 -0.05080
 H1234 H -0.03536 -0.15132 -0.00587
 H1235 H 0.00506 -0.12389 -0.02429
 H1236 H -0.06287 -0.10712 -0.00225
 C1237 C -0.05470 0.39740 0.46101
 C1238 C -0.04432 0.38290 0.43892
 C1239 C -0.04543 0.35927 0.45431
 C1240 C -0.05594 0.37351 0.47632
 C1241 C -0.01913 0.36347 0.46358
 C1242 C -0.01791 0.38743 0.44828
 C1243 C -0.02841 0.40165 0.47031
 C1244 C -0.02951 0.37806 0.48574
 H1245 H -0.06915 0.41169 0.46002
 H1246 H -0.05056 0.38462 0.41957
 H1247 H -0.07171 0.36763 0.48778
 H1248 H -0.00461 0.34922 0.46452
 H1249 H -0.00220 0.39338 0.43678
 H1250 H -0.02328 0.37635 0.50509
 C1251 C 0.48466 -0.12224 0.47005
 C1252 C 0.46243 -0.13691 0.48010
 C1253 C 0.45325 -0.14048 0.45362
 C1254 C 0.47534 -0.12618 0.44342
 C1255 C 0.43801 -0.11680 0.45517
 C1256 C 0.44730 -0.11287 0.48177
 C1257 C 0.46941 -0.09858 0.47160
 C1258 C 0.46018 -0.10224 0.44513
 H1259 H 0.50393 -0.12418 0.47632
 H1260 H 0.46326 -0.15145 0.49436
 H1261 H 0.48681 -0.13174 0.42754
 H1262 H 0.41875 -0.11481 0.44888
 H1263 H 0.43584 -0.10716 0.49760
 H1264 H 0.45932 -0.08762 0.43097
 C1265 C 0.46878 0.37732 -0.01388
 C1266 C 0.44235 0.37317 -0.02354
 C1267 C 0.45288 0.35893 -0.04556
 C1268 C 0.47915 0.36270 -0.03605
 C1269 C 0.45441 0.38262 -0.06081
 C1270 C 0.44405 0.39713 -0.03871
 C1271 C 0.47032 0.40099 -0.02916
 C1272 C 0.48080 0.38674 -0.05120
 H1273 H 0.47481 0.37542 0.00551
 H1274 H 0.42641 0.36750 -0.01221
 H1275 H 0.49348 0.34827 -0.03506
 H1276 H 0.44835 0.38456 -0.08020
 H1277 H 0.42984 0.41166 -0.03972
 H1278 H 0.49669 0.39253 -0.06253
 C1279 C 0.80002 0.36328 0.48283
 C1280 C 0.80979 0.36732 0.45648
 C1281 C 0.79467 0.39107 0.45480
 C1282 C 0.78499 0.38736 0.48104
 C1283 C 0.77273 0.37688 0.44406
 C1284 C 0.78778 0.35290 0.44588
 C1285 C 0.77806 0.34911 0.47212
 C1286 C 0.76289 0.37279 0.47045
 H1287 H 0.81119 0.35749 0.49888
 H1288 H 0.82916 0.36527 0.45061
 H1289 H 0.78398 0.40183 0.49538
 H1290 H 0.76160 0.38262 0.42797
 H1291 H 0.78885 0.33842 0.43155
 H1292 H 0.74351 0.37475 0.47632
 C1293 C 0.80592 0.85281 -0.03920
 C1294 C 0.79577 0.86748 -0.06129
 C1295 C 0.79748 0.89109 -0.04589
 C1296 C 0.80780 0.87669 -0.02389
 C1297 C 0.77113 0.88753 -0.03657
 C1298 C 0.76930 0.86356 -0.05186
 C1299 C 0.77959 0.84916 -0.02985
 C1300 C 0.78130 0.87275 -0.01442
 H1301 H 0.82000 0.83815 -0.04022
 H1302 H 0.80189 0.86557 -0.08064
 H1303 H 0.82376 0.88219 -0.01245
 H1304 H 0.75694 0.90210 -0.03558
 H1305 H 0.75340 0.85794 -0.06331
 H1306 H 0.77520 0.87463 0.00494
 C1307 C 0.76720 0.29956 0.38560
 C1308 C 0.79350 0.30946 0.38180
 C1309 C 0.79538 0.29445 0.35795
 C1310 C 0.76919 0.28462 0.36143
 C1311 C 0.80602 0.27243 0.37211
 C1312 C 0.80401 0.28738 0.39619
 C1313 C 0.77782 0.27752 0.39974
 C1314 C 0.77968 0.26244 0.37595
 H1315 H 0.75114 0.31067 0.39132
 H1316 H 0.79931 0.32889 0.38403
 H1317 H 0.75497 0.28361 0.34685
 H1318 H 0.82212 0.26136 0.36643
 H1319 H 0.81821 0.28845 0.41077
 H1320 H 0.77387 0.24302 0.37380
 C1321 C 0.80215 0.76957 -0.11331
 C1322 C 0.78707 0.77123 -0.13741
 C1323 C 0.79636 0.79765 -0.14097
 C1324 C 0.81154 0.79610 -0.11722
 C1325 C 0.77428 0.80798 -0.12678
 C1326 C 0.76485 0.78141 -0.12283
 C1327 C 0.78006 0.77985 -0.09910
 C1328 C 0.78938 0.80626 -0.10275
 H1329 H 0.81356 0.75370 -0.10755
 H1330 H 0.78622 0.75694 -0.15194
 H1331 H 0.83082 0.80231 -0.11515
 H1332 H 0.76289 0.82390 -0.13242
 H1333 H 0.74556 0.77521 -0.12485
 H1334 H 0.79025 0.82044 -0.08813
 C1335 C 0.28049 0.48568 0.87266
 C1336 C 0.26987 0.46370 0.88735
 C1337 C 0.29601 0.45383 0.89099
 C1338 C 0.30677 0.47566 0.87665
 C1339 C 0.29407 0.43858 0.86730
 C1340 C 0.26781 0.44853 0.86332
 C1341 C 0.27856 0.47039 0.84901
 C1342 C 0.30469 0.46048 0.85271
 H1343 H 0.27478 0.50515 0.87459
 H1344 H 0.25566 0.46490 0.90188
 H1345 H 0.32292 0.48674 0.88227
 H1346 H 0.29981 0.41911 0.86537
 H1347 H 0.25171 0.43742 0.85761
 H1348 H 0.31880 0.45923 0.83811
 C1349 C 0.30092 -0.01649 0.36332
 C1350 C 0.28608 -0.01806 0.38755
 C1351 C 0.29556 -0.04438 0.39128
 C1352 C 0.31048 -0.04291 0.36739
 C1353 C 0.27340 -0.05493 0.37728
 C1354 C 0.26376 -0.02848 0.37319
 C1355 C 0.27874 -0.02702 0.34935
 C1356 C 0.28826 -0.05334 0.35317
 H1357 H 0.31218 -0.00058 0.35739
 H1358 H 0.28532 -0.00366 0.40198
 H1359 H 0.32978 -0.04898 0.36520
 H1360 H 0.26216 -0.07089 0.38316
 H1361 H 0.24446 -0.02241 0.37530
 H1362 H 0.28908 -0.06773 0.33874
 C1363 C -0.01823 -0.05102 -0.11240
 C1364 C -0.04456 -0.06078 -0.11655
 C1365 C -0.04624 -0.04539 -0.14014
 C1366 C -0.02003 -0.03574 -0.13636
 C1367 C -0.05689 -0.02353 -0.12575
 C1368 C -0.05504 -0.03883 -0.10189
 C1369 C -0.02884 -0.02914 -0.09801
 C1370 C -0.03053 -0.01374 -0.12159
 H1371 H -0.00225 -0.06228 -0.10668
 H1372 H -0.05048 -0.08020 -0.11472
 H1373 H -0.00573 -0.03458 -0.15082
 H1374 H -0.07291 -0.01227 -0.13133
 H1375 H -0.06922 -0.04002 -0.08735
 H1376 H -0.02462 0.00569 -0.12338
 C1377 C -0.05217 0.48140 0.38711
 C1378 C -0.03713 0.47970 0.36302
 C1379 C -0.04635 0.45325 0.35948
 C1380 C -0.06150 0.45483 0.38321
 C1381 C -0.02422 0.44303 0.37372
 C1382 C -0.01485 0.46963 0.37764
 C1383 C -0.03003 0.47122 0.40135
 C1384 C -0.03929 0.44478 0.39773
 H1385 H -0.06361 0.49725 0.39283
 H1386 H -0.03634 0.49396 0.34847
 H1387 H -0.08077 0.44857 0.38526
 H1388 H -0.01279 0.42713 0.36813
 H1389 H 0.00442 0.47587 0.37563
 H1390 H -0.04011 0.43062 0.41236
 C1391 C 0.48194 -0.05219 0.38739
 C1392 C 0.45554 -0.06158 0.38289
 C1393 C 0.45440 -0.04626 0.35920
 C1394 C 0.48070 -0.03697 0.36338
 C1395 C 0.44387 -0.02422 0.37339
 C1396 C 0.44515 -0.03946 0.39733
 C1397 C 0.47143 -0.03013 0.40156
 C1398 C 0.47030 -0.01478 0.37791
 H1399 H 0.49767 -0.06366 0.39337
 H1400 H 0.44933 -0.08091 0.38467
 H1401 H 0.49520 -0.03605 0.34913
 H1402 H 0.42809 -0.01280 0.36748
 H1403 H 0.43071 -0.04042 0.41164
 H1404 H 0.47650 0.00456 0.37615
 C1405 C 0.48514 0.46897 -0.12228
 C1406 C 0.47546 0.44252 -0.12646
 C1407 C 0.45348 0.45315 -0.14065
 C1408 C 0.46301 0.47944 -0.13685
 C1409 C 0.43831 0.45466 -0.11693
 C1410 C 0.46037 0.44420 -0.10247
 C1411 C 0.46994 0.47049 -0.09859
 C1412 C 0.44794 0.48107 -0.11278
 H1413 H 0.50449 0.47499 -0.12418
 H1414 H 0.48673 0.42654 -0.13219
 H1415 H 0.46398 0.49383 -0.15126
 H1416 H 0.41896 0.44862 -0.11499
 H1417 H 0.45937 0.42992 -0.08798
 H1418 H 0.43667 0.49700 -0.10692
 C1419 C 0.48230 0.80256 0.36230
 C1420 C 0.45589 0.81210 0.36625
 C1421 C 0.45420 0.79682 0.38992
 C1422 C 0.48050 0.78737 0.38630
 C1423 C 0.44376 0.77483 0.37554
 C1424 C 0.44560 0.79004 0.35162
 C1425 C 0.47188 0.78055 0.34795
 C1426 C 0.47019 0.76522 0.37158
 H1427 H 0.49822 0.81392 0.35663
 H1428 H 0.44984 0.83147 0.36433
 H1429 H 0.49472 0.78638 0.40086
 H1430 H 0.42779 0.76351 0.38112
 H1431 H 0.43145 0.79107 0.33700
 H1432 H 0.47622 0.74585 0.37349
 C1433 C -0.01371 0.78174 0.87276
 C1434 C -0.02345 0.80819 0.87676
 C1435 C -0.04543 0.79756 0.89092
 C1436 C -0.03583 0.77127 0.88730
 C1437 C -0.06057 0.79585 0.86715
 C1438 C -0.03851 0.80630 0.85272
 C1439 C -0.02888 0.78003 0.84901
 C1440 C -0.05087 0.76945 0.86318
 H1441 H 0.00565 0.77581 0.87477
 H1442 H -0.01224 0.82424 0.88244
 H1443 H -0.03485 0.75697 0.90179
 H1444 H -0.07992 0.80181 0.86511
 H1445 H -0.03952 0.82049 0.83813
 H1446 H -0.06210 0.75344 0.85738
 C1447 C 0.39811 0.80530 0.28867
 C1448 C 0.37418 0.80665 0.27346
 C1449 C 0.36003 0.79625 0.29557
 C1450 C 0.38371 0.79503 0.31085
 C1451 C 0.36398 0.76985 0.28635
 C1452 C 0.37847 0.78012 0.26409
 C1453 C 0.40211 0.77891 0.27941
 C1454 C 0.38799 0.76852 0.30154
 H1455 H 0.41250 0.81968 0.28955
 H1456 H 0.36836 0.82246 0.26199
 H1457 H 0.38560 0.80132 0.33017
 H1458 H 0.34965 0.75538 0.28550
 H1459 H 0.37659 0.77385 0.24477
 H1460 H 0.39388 0.75277 0.31305
 C1461 C -0.10187 0.78972 0.80572
 C1462 C -0.11627 0.81176 0.79516
 C1463 C -0.13996 0.79656 0.79668
 C1464 C -0.12582 0.77459 0.80739
 C1465 C -0.13614 0.78693 0.77041
 C1466 C -0.11213 0.80206 0.76878
 C1467 C -0.09799 0.78007 0.77946
 C1468 C -0.12164 0.76481 0.78097
 H1469 H -0.08741 0.79078 0.82003
 H1470 H -0.11435 0.83116 0.80116
 H1471 H -0.13161 0.76339 0.82339
 H1472 H -0.15052 0.78590 0.75600
 H1473 H -0.10629 0.81332 0.75283
 H1474 H -0.12355 0.74540 0.77500
 C1475 C 0.85340 0.30280 0.46197
 C1476 C 0.87728 0.30495 0.47714
 C1477 C 0.89158 0.29427 0.45526
 C1478 C 0.86792 0.29225 0.44002
 C1479 C 0.88809 0.26804 0.46508
 C1480 C 0.87342 0.27858 0.48713
 C1481 C 0.84982 0.27656 0.47183
 C1482 C 0.86410 0.26591 0.44993
 H1483 H 0.83883 0.31698 0.46075
 H1484 H 0.88285 0.32114 0.48823
 H1485 H 0.86586 0.29802 0.42057
 H1486 H 0.90266 0.25387 0.46623
 H1487 H 0.87541 0.27281 0.50658
 H1488 H 0.85849 0.24976 0.43880
 C1489 C 0.86310 0.80253 -0.01859
 C1490 C 0.88708 0.78737 -0.02013
 C1491 C 0.89094 0.79676 -0.04648
 C1492 C 0.86728 0.81201 -0.04505
 C1493 C 0.87672 0.77472 -0.05702
 C1494 C 0.87252 0.76517 -0.03054
 C1495 C 0.84890 0.78046 -0.02911
 C1496 C 0.85281 0.78989 -0.05545
 H1497 H 0.85728 0.81393 -0.00272
 H1498 H 0.90146 0.78644 -0.00571
 H1499 H 0.86539 0.83136 -0.05118
 H1500 H 0.88247 0.76337 -0.07295
 H1501 H 0.87440 0.74582 -0.02443
 H1502 H 0.83837 0.79086 -0.06978
 C1503 C -0.10206 -0.05514 -0.03908
 C1504 C -0.12597 -0.05706 -0.02394
 C1505 C -0.14024 -0.04648 -0.04593
 C1506 C -0.11660 -0.04473 -0.06115
 C1507 C -0.13662 -0.02018 -0.03628
 C1508 C -0.12198 -0.03062 -0.01415
 C1509 C -0.09835 -0.02885 -0.02939
 C1510 C -0.11262 -0.01831 -0.05140
 H1511 H -0.08750 -0.06931 -0.04015
 H1512 H -0.13152 -0.07312 -0.01269
 H1513 H -0.11463 -0.05068 -0.08057
 H1514 H -0.15110 -0.00590 -0.03523
 H1515 H -0.12393 -0.02469 0.00527
 H1516 H -0.10692 -0.00230 -0.06265
 C1517 C -0.11286 0.44879 0.48206
 C1518 C -0.13676 0.46409 0.48044
 C1519 C -0.14080 0.45443 0.45420
 C1520 C -0.11723 0.43904 0.45570
 C1521 C -0.12649 0.47626 0.44341
 C1522 C -0.12211 0.48607 0.46979
 C1523 C -0.09859 0.47064 0.47128
 C1524 C -0.10268 0.46095 0.44505
 H1525 H -0.10703 0.43754 0.49802
 H1526 H -0.15106 0.46527 0.49488
 H1527 H -0.11548 0.41961 0.44976
 H1528 H -0.13225 0.48748 0.42739
 H1529 H -0.12383 0.50551 0.47571
 H1530 H -0.08831 0.45974 0.43070
 C1531 C 0.38690 -0.01773 0.44840
 C1532 C 0.38262 -0.04413 0.43870
 C1533 C 0.35907 -0.04564 0.45408
 C1534 C 0.36298 -0.01937 0.46367
 C1535 C 0.37337 -0.05634 0.47598
 C1536 C 0.39719 -0.05466 0.46069
 C1537 C 0.40119 -0.02840 0.47032
 C1538 C 0.37765 -0.02992 0.48572
 H1539 H 0.39269 -0.00178 0.43711
 H1540 H 0.38444 -0.05011 0.41928
 H1541 H 0.34864 -0.00496 0.46479
 H1542 H 0.36772 -0.07234 0.48729
 H1543 H 0.41161 -0.06897 0.45954
 H1544 H 0.37589 -0.02395 0.50514
 C1545 C 0.37754 0.48518 -0.03013
 C1546 C 0.37332 0.47548 -0.05659
 C1547 C 0.35923 0.45344 -0.04593
 C1548 C 0.36307 0.46299 -0.01963
 C1549 C 0.38291 0.43826 -0.04447
 C1550 C 0.39728 0.46038 -0.05495
 C1551 C 0.40121 0.46997 -0.02866
 C1552 C 0.38711 0.44792 -0.01804
 H1553 H 0.37563 0.50457 -0.02411
 H1554 H 0.36755 0.48676 -0.07256
 H1555 H 0.34873 0.46395 -0.00521
 H1556 H 0.38484 0.41888 -0.05052
 H1557 H 0.41170 0.45939 -0.06927
 H1558 H 0.39301 0.43663 -0.00212
 C1559 C 0.37160 0.46971 0.76487
 C1560 C 0.38624 0.48020 0.78698
 C1561 C 0.39002 0.45392 0.79655
 C1562 C 0.37573 0.44329 0.77459
 C1563 C 0.36641 0.45553 0.81183
 C1564 C 0.36230 0.48192 0.80218
 C1565 C 0.34803 0.47130 0.78020
 C1566 C 0.35186 0.44504 0.78980
 H1567 H 0.37345 0.47567 0.74546
 H1568 H 0.40067 0.49455 0.78594
 H1569 H 0.38140 0.42727 0.76333
 H1570 H 0.36456 0.44954 0.83123
 H1571 H 0.35656 0.49788 0.81349
 H1572 H 0.33737 0.43078 0.79088
 C1573 C 0.35340 -0.03842 0.30267
 C1574 C 0.36775 -0.06054 0.29226
 C1575 C 0.39151 -0.04545 0.29404
 C1576 C 0.37738 -0.02339 0.30458
 C1577 C 0.38793 -0.03583 0.26772
 C1578 C 0.36384 -0.05084 0.26584
 C1579 C 0.34974 -0.02876 0.27636
 C1580 C 0.37344 -0.01361 0.27813
 H1581 H 0.33890 -0.03941 0.31694
 H1582 H 0.36561 -0.07992 0.29821
 H1583 H 0.38308 -0.01218 0.32066
 H1584 H 0.40243 -0.03490 0.25346
 H1585 H 0.35808 -0.06208 0.24981
 H1586 H 0.37551 0.00577 0.27218
 C1587 C 0.14566 0.53762 0.69706
 C1588 C 0.12180 0.52234 0.69559
 C1589 C 0.10763 0.54422 0.70645
 C1590 C 0.13125 0.55957 0.70779
 C1591 C 0.11181 0.53460 0.73267
 C1592 C 0.12634 0.51257 0.72195
 C1593 C 0.14991 0.52798 0.72327
 C1594 C 0.13575 0.54988 0.73411
 H1595 H 0.15986 0.53879 0.68251
 H1596 H 0.11592 0.51108 0.67962
 H1597 H 0.13309 0.57899 0.70185
 H1598 H 0.09760 0.53349 0.74720
 H1599 H 0.12461 0.49315 0.72789
 H1600 H 0.14168 0.56116 0.75004
 C1601 C 0.13708 0.05101 0.23161
 C1602 C 0.13260 0.06024 0.20510
 C1603 C 0.10907 0.04473 0.20395
 C1604 C 0.11320 0.03561 0.23035
 C1605 C 0.12334 0.02273 0.19348
 C1606 C 0.14716 0.03816 0.19479
 C1607 C 0.15136 0.02900 0.22119
 C1608 C 0.12785 0.01347 0.22003
 H1609 H 0.14294 0.06260 0.24736
 H1610 H 0.13435 0.07955 0.19880
 H1611 H 0.09896 0.03464 0.24488
 H1612 H 0.11760 0.01116 0.17769
 H1613 H 0.16147 0.03914 0.18036
 H1614 H 0.12618 -0.00585 0.22633
 C1615 C 0.61470 0.73430 0.19978
 C1616 C 0.63857 0.73284 0.21518
 C1617 C 0.64266 0.70655 0.20569
 C1618 C 0.61911 0.70792 0.19021
 C1619 C 0.62833 0.69587 0.22755
 C1620 C 0.62387 0.72229 0.23719
 C1621 C 0.60038 0.72365 0.22165
 C1622 C 0.60454 0.69736 0.21212
 H1623 H 0.60892 0.75019 0.18839
 H1624 H 0.65286 0.74733 0.21634
 H1625 H 0.61732 0.70187 0.17080
 H1626 H 0.63407 0.67994 0.23889
 H1627 H 0.62556 0.72835 0.25660
 H1628 H 0.59026 0.68286 0.21092
 C1629 C 0.11434 0.73411 0.70117
 C1630 C 0.13830 0.73275 0.71644
 C1631 C 0.14243 0.70651 0.70686
 C1632 C 0.11879 0.70777 0.69152
 C1633 C 0.12827 0.69572 0.72879
 C1634 C 0.12378 0.72210 0.73851
 C1635 C 0.10020 0.72335 0.72311
 C1636 C 0.10440 0.69711 0.71350
 H1637 H 0.10842 0.75000 0.68985
 H1638 H 0.15253 0.74729 0.71751
 H1639 H 0.11693 0.70177 0.67211
 H1640 H 0.13416 0.67979 0.74006
 H1641 H 0.12554 0.72811 0.75793
 H1642 H 0.09017 0.68256 0.71237
 C1643 C 0.64715 0.21118 0.55424
 C1644 C 0.62353 0.22680 0.55564
 C1645 C 0.60899 0.20509 0.54488
 C1646 C 0.63236 0.18938 0.54362
 C1647 C 0.61325 0.21449 0.51861
 C1648 C 0.62814 0.23635 0.52923
 C1649 C 0.65146 0.22061 0.52797
 C1650 C 0.63694 0.19887 0.51724
 H1651 H 0.66143 0.20987 0.56872
 H1652 H 0.61785 0.23822 0.57155
 H1653 H 0.63384 0.16997 0.54968
 H1654 H 0.59902 0.21574 0.50408
 H1655 H 0.62670 0.25576 0.52317
 H1656 H 0.64268 0.18741 0.50138
 C1657 C 0.63625 0.69995 0.01497
 C1658 C 0.63191 0.69040 0.04138
 C1659 C 0.60835 0.70581 0.04278
 C1660 C 0.61236 0.71528 0.01648
 C1661 C 0.62270 0.72772 0.05343
 C1662 C 0.64648 0.71237 0.05191
 C1663 C 0.65056 0.72188 0.02561
 C1664 C 0.62706 0.73734 0.02701
 H1665 H 0.64203 0.68858 -0.00094
 H1666 H 0.63373 0.67101 0.04741
 H1667 H 0.59803 0.71635 0.00202
 H1668 H 0.61700 0.73907 0.06938
 H1669 H 0.66080 0.71124 0.06639
 H1670 H 0.62533 0.75673 0.02097
 C1671 C 0.10365 0.03729 0.05475
 C1672 C 0.12751 0.02205 0.05656
 C1673 C 0.14178 0.04398 0.04593
 C1674 C 0.11818 0.05929 0.04427
 C1675 C 0.13803 0.03437 0.01963
 C1676 C 0.12336 0.01228 0.03011
 C1677 C 0.09979 0.02763 0.02845
 C1678 C 0.11408 0.04958 0.01786
 H1679 H 0.08921 0.03841 0.06906
 H1680 H 0.13312 0.01079 0.07260
 H1681 H 0.11620 0.07870 0.05022
 H1682 H 0.15244 0.03328 0.00529
 H1683 H 0.12520 -0.00713 0.02415
 H1684 H 0.10836 0.06084 0.00186
 C1685 C 0.11415 0.55031 0.51601
 C1686 C 0.11869 0.55976 0.54244
 C1687 C 0.14215 0.54418 0.54372
 C1688 C 0.13795 0.53482 0.51738
 C1689 C 0.12774 0.52235 0.55433
 C1690 C 0.10404 0.53786 0.55292
 C1691 C 0.09976 0.52846 0.52660
 C1692 C 0.12317 0.51283 0.52787
 H1693 H 0.10837 0.56176 0.50016
 H1694 H 0.11703 0.57914 0.54857
 H1695 H 0.15219 0.53368 0.50289
 H1696 H 0.13347 0.51093 0.57021
 H1697 H 0.08980 0.53905 0.56744
 H1698 H 0.12472 0.49345 0.52173
 C1699 C 0.62299 0.02895 0.51267
 C1700 C 0.62706 0.05541 0.52241
 C1701 C 0.64146 0.04488 0.54430
 C1702 C 0.63776 0.01856 0.53473
 C1703 C 0.61791 0.04313 0.55967
 C1704 C 0.60327 0.05353 0.53770
 C1705 C 0.59950 0.02721 0.52810
 C1706 C 0.61388 0.01671 0.55002
 H1707 H 0.62480 0.02296 0.49326
 H1708 H 0.63263 0.07146 0.51115
 H1709 H 0.65226 0.00431 0.53363
 H1710 H 0.61600 0.04911 0.57908
 H1711 H 0.58878 0.06779 0.53886
 H1712 H 0.60826 0.00071 0.56132
 C1713 C 0.62321 0.52888 0.01092
 C1714 C 0.62776 0.55528 0.02062
 C1715 C 0.64211 0.54453 0.04246
 C1716 C 0.63793 0.51828 0.03291
 C1717 C 0.61860 0.54319 0.05794
 C1718 C 0.60400 0.55380 0.03604
 C1719 C 0.59976 0.52755 0.02647
 C1720 C 0.61411 0.51683 0.04832
 H1721 H 0.62481 0.52286 -0.00850
 H1722 H 0.63354 0.57122 0.00932
 H1723 H 0.65217 0.50378 0.03175
 H1724 H 0.61688 0.54919 0.07736
 H1725 H 0.58975 0.56830 0.03725
 H1726 H 0.60832 0.50093 0.05968
 C1727 C 0.01366 0.02855 0.12465
 C1728 C 0.03600 0.01808 0.13892
 C1729 C 0.04554 0.04438 0.14270
 C1730 C 0.02336 0.05501 0.12883
 C1731 C 0.06041 0.04298 0.11878
 C1732 C 0.05077 0.01656 0.11464
 C1733 C 0.02857 0.02715 0.10076
 C1734 C 0.03816 0.05345 0.10465
 H1735 H -0.00565 0.02249 0.12678
 H1736 H 0.03524 0.00363 0.15327
 H1737 H 0.01214 0.07095 0.13475
 H1738 H 0.07972 0.04903 0.11653
 H1739 H 0.06199 0.00067 0.10862
 H1740 H 0.03897 0.06789 0.09028
 C1741 C 0.03752 0.55338 0.60413
 C1742 C 0.02210 0.55486 0.62790
 C1743 C 0.04389 0.54422 0.64233
 C1744 C 0.05938 0.54287 0.61880
 C1745 C 0.03448 0.51792 0.63820
 C1746 C 0.01253 0.52843 0.62340
 C1747 C 0.02807 0.52708 0.59993
 C1748 C 0.04989 0.51647 0.61433
 H1749 H 0.03871 0.56786 0.58981
 H1750 H 0.01076 0.57078 0.63364
 H1751 H 0.07874 0.54895 0.61709
 H1752 H 0.03335 0.50346 0.65252
 H1753 H -0.00683 0.52234 0.62500
 H1754 H 0.06126 0.50059 0.60855
 C1755 C 0.51663 0.04982 0.61461
 C1756 C 0.51804 0.03453 0.63860
 C1757 C 0.54436 0.04381 0.64259
 C1758 C 0.54306 0.05920 0.61895
 C1759 C 0.55480 0.02179 0.62830
 C1760 C 0.52833 0.01236 0.62392
 C1761 C 0.52702 0.02778 0.60031
 C1762 C 0.55335 0.03710 0.60441
 H1763 H 0.50084 0.06129 0.60880
 H1764 H 0.50361 0.03357 0.65294
 H1765 H 0.54925 0.07853 0.61705
 H1766 H 0.57062 0.01031 0.63402
 H1767 H 0.52212 -0.00698 0.62569
 H1768 H 0.56776 0.03809 0.59005
 C1769 C 0.55370 0.53684 0.10406
 C1770 C 0.54298 0.55878 0.11852
 C1771 C 0.54435 0.54346 0.14219
 C1772 C 0.55520 0.52159 0.12797
 C1773 C 0.51820 0.53377 0.13801
 C1774 C 0.51674 0.54902 0.11402
 C1775 C 0.52755 0.52713 0.09981
 C1776 C 0.52891 0.51174 0.12342
 H1777 H 0.56820 0.53803 0.08981
 H1778 H 0.54889 0.57821 0.11668
 H1779 H 0.57115 0.51039 0.13387
 H1780 H 0.50371 0.53264 0.15226
 H1781 H 0.50083 0.56027 0.10811
 H1782 H 0.52299 0.49231 0.12515
 C1783 C 0.21242 0.55354 0.64609
 C1784 C 0.22780 0.55499 0.62228
 C1785 C 0.20602 0.54418 0.60790
 C1786 C 0.19058 0.54285 0.63146
 C1787 C 0.21555 0.51795 0.61210
 C1788 C 0.23748 0.52863 0.62685
 C1789 C 0.22198 0.52732 0.65035
 C1790 C 0.20018 0.51652 0.63598
 H1791 H 0.21120 0.56808 0.66036
 H1792 H 0.23908 0.57095 0.61649
 H1793 H 0.17120 0.54882 0.63318
 H1794 H 0.21672 0.50343 0.59782
 H1795 H 0.25686 0.52265 0.62523
 H1796 H 0.18887 0.50061 0.64181
 C1797 C 0.21049 0.05373 0.14676
 C1798 C 0.22571 0.05510 0.12283
 C1799 C 0.20367 0.04461 0.10860
 C1800 C 0.18837 0.04340 0.13226
 C1801 C 0.21286 0.01823 0.11258
 C1802 C 0.23504 0.02857 0.12719
 C1803 C 0.21972 0.02736 0.15083
 C1804 C 0.19767 0.01691 0.13661
 H1805 H 0.20958 0.06815 0.16115
 H1806 H 0.23719 0.07091 0.11707
 H1807 H 0.16909 0.04966 0.13411
 H1808 H 0.21373 0.00374 0.09825
 H1809 H 0.25432 0.02233 0.12540
 H1810 H 0.18619 0.00114 0.14251
 C1811 C 0.73615 0.22000 0.62195
 C1812 C 0.71426 0.23087 0.63653
 C1813 C 0.70457 0.20472 0.64084
 C1814 C 0.72631 0.19371 0.62660
 C1815 C 0.68917 0.20596 0.61720
 C1816 C 0.69895 0.23222 0.61257
 C1817 C 0.72070 0.22123 0.59836
 C1818 C 0.71098 0.19509 0.60271
 H1819 H 0.75556 0.22589 0.62360
 H1820 H 0.71549 0.24548 0.65072
 H1821 H 0.73749 0.17775 0.63253
 H1822 H 0.66976 0.20005 0.61551
 H1823 H 0.68773 0.24814 0.60657
 H1824 H 0.70971 0.18055 0.58847
 C1825 C 0.70046 0.73471 0.11354
 C1826 C 0.69089 0.70834 0.11798
 C1827 C 0.70632 0.70701 0.14160
 C1828 C 0.71582 0.73328 0.13749
 C1829 C 0.72812 0.69629 0.12726
 C1830 C 0.71275 0.69775 0.10342
 C1831 C 0.72229 0.72401 0.09924
 C1832 C 0.73777 0.72269 0.12279
 H1833 H 0.68914 0.75061 0.10769
 H1834 H 0.67152 0.70232 0.11619
 H1835 H 0.71695 0.74777 0.15180
 H1836 H 0.73942 0.68036 0.13304
 H1837 H 0.71156 0.68323 0.08912
 H1838 H 0.75714 0.72872 0.12448
 C1839 C 0.51713 0.70071 0.13520
 C1840 C 0.51853 0.71595 0.11121
 C1841 C 0.54477 0.70650 0.10715
 C1842 C 0.54347 0.69119 0.13083
 C1843 C 0.55543 0.72848 0.12139
 C1844 C 0.52905 0.73808 0.12582
 C1845 C 0.52776 0.72270 0.14943
 C1846 C 0.55399 0.71323 0.14531
 H1847 H 0.50130 0.68933 0.14107
 H1848 H 0.50407 0.71695 0.09689
 H1849 H 0.54952 0.67182 0.13271
 H1850 H 0.57131 0.73981 0.11555
 H1851 H 0.52299 0.75746 0.12404
 H1852 H 0.56847 0.71218 0.15963
 C1853 C 0.02877 0.73891 0.62671
 C1854 C 0.05504 0.72911 0.62214
 C1855 C 0.04414 0.70723 0.60791
 C1856 C 0.01801 0.71688 0.61212
 C1857 C 0.04286 0.69190 0.63158
 C1858 C 0.05363 0.71384 0.64604
 C1859 C 0.02750 0.72352 0.65032
 C1860 C 0.01663 0.70162 0.63611
 H1861 H 0.02286 0.75834 0.62499
 H1862 H 0.07098 0.74033 0.61624
 H1863 H 0.00347 0.71800 0.59789
 H1864 H 0.04876 0.67247 0.63341
 H1865 H 0.06818 0.71266 0.66028
 H1866 H 0.00074 0.69035 0.64204
 C1867 C 0.53736 0.64610 0.19637
 C1868 C 0.55934 0.63164 0.20691
 C1869 C 0.54394 0.60800 0.20579
 C1870 C 0.52203 0.62223 0.19512
 C1871 C 0.53465 0.61228 0.23210
 C1872 C 0.54997 0.63624 0.23332
 C1873 C 0.52804 0.65045 0.22268
 C1874 C 0.51258 0.62687 0.22157
 H1875 H 0.53842 0.66030 0.18177
 H1876 H 0.57865 0.63342 0.20076
 H1877 H 0.51062 0.61631 0.17928
 H1878 H 0.53365 0.59808 0.24668
 H1879 H 0.56142 0.64219 0.24912
 H1880 H 0.49327 0.62520 0.22773
 C1881 C 0.03749 0.64653 0.69697
 C1882 C 0.05929 0.63197 0.70775
 C1883 C 0.04387 0.60837 0.70631
 C1884 C 0.02212 0.62269 0.69541
 C1885 C 0.03421 0.61254 0.73251
 C1886 C 0.04956 0.63646 0.73404
 C1887 C 0.02780 0.65078 0.72316
 C1888 C 0.01232 0.62723 0.72174
 H1889 H 0.03876 0.66079 0.68245
 H1890 H 0.07869 0.63373 0.70188
 H1891 H 0.01092 0.61688 0.67938
 H1892 H 0.03300 0.59828 0.74701
 H1893 H 0.06081 0.64232 0.75002
 H1894 H -0.00708 0.62557 0.72761
 C1895 C 0.02867 0.12358 0.01332
 C1896 C 0.01812 0.13828 0.03537
 C1897 C 0.04433 0.14224 0.04498
 C1898 C 0.05503 0.12794 0.02308
 C1899 C 0.04285 0.11863 0.06037
 C1900 C 0.01653 0.11432 0.05066
 C1901 C 0.02718 0.10001 0.02875
 C1902 C 0.05339 0.10407 0.03840
 H1903 H 0.02270 0.12533 -0.00610
 H1904 H 0.00372 0.15263 0.03424
 H1905 H 0.07099 0.13362 0.01180
 H1906 H 0.04881 0.11675 0.07979
 H1907 H 0.00061 0.10852 0.06194
 H1908 H 0.06778 0.08970 0.03958
 C1909 C 0.05259 0.60469 0.53763
 C1910 C 0.05410 0.62851 0.52225
 C1911 C 0.04348 0.64289 0.54413
 C1912 C 0.04209 0.61930 0.55957
 C1913 C 0.01724 0.63880 0.53462
 C1914 C 0.02774 0.62407 0.51258
 C1915 C 0.02635 0.60053 0.52808
 C1916 C 0.01574 0.61488 0.54998
 H1917 H 0.06703 0.59038 0.53881
 H1918 H 0.07001 0.63424 0.51092
 H1919 H 0.04811 0.61751 0.57898
 H1920 H 0.00281 0.65312 0.53350
 H1921 H 0.02170 0.62576 0.49317
 H1922 H -0.00013 0.60908 0.56133
 C1923 C 0.53741 0.10391 0.55328
 C1924 C 0.55950 0.11825 0.54283
 C1925 C 0.54432 0.14199 0.54407
 C1926 C 0.52229 0.12788 0.55464
 C1927 C 0.53494 0.13794 0.51773
 C1928 C 0.55004 0.11387 0.51639
 C1929 C 0.52799 0.09978 0.52694
 C1930 C 0.51275 0.12346 0.52817
 H1931 H 0.53835 0.08961 0.56780
 H1932 H 0.57881 0.11630 0.54899
 H1933 H 0.51097 0.13379 0.57051
 H1934 H 0.53405 0.15224 0.50323
 H1935 H 0.56139 0.10790 0.50057
 H1936 H 0.49344 0.12531 0.52200
 C1937 C 0.53740 0.60405 0.05296
 C1938 C 0.55923 0.61846 0.04204
 C1939 C 0.54399 0.64215 0.04349
 C1940 C 0.52223 0.62798 0.05454
 C1941 C 0.53411 0.63796 0.01736
 C1942 C 0.54927 0.61396 0.01581
 C1943 C 0.52749 0.59979 0.02683
 C1944 C 0.51219 0.62342 0.02827
 H1945 H 0.53868 0.58982 0.06751
 H1946 H 0.57866 0.61661 0.04782
 H1947 H 0.51118 0.63389 0.07060
 H1948 H 0.53288 0.65220 0.00282
 H1949 H 0.56036 0.60801 -0.00021
 H1950 H 0.49275 0.62518 0.02249
 C1951 C 0.71979 0.12720 0.51414
 C1952 C 0.73031 0.11260 0.53625
 C1953 C 0.70408 0.10858 0.54571
 C1954 C 0.69341 0.12282 0.52374
 C1955 C 0.70544 0.13224 0.56108
 C1956 C 0.73179 0.13661 0.55151
 C1957 C 0.72116 0.15084 0.52953
 C1958 C 0.69493 0.14675 0.53903
 H1959 H 0.72581 0.12541 0.49475
 H1960 H 0.74476 0.09830 0.53521
 H1961 H 0.67751 0.11706 0.51235
 H1962 H 0.69941 0.13409 0.58047
 H1963 H 0.74764 0.14250 0.56290
 H1964 H 0.68055 0.16112 0.54010
 C1965 C 0.69737 0.64636 0.03636
 C1966 C 0.69592 0.62251 0.02097
 C1967 C 0.70646 0.60818 0.04292
 C1968 C 0.70778 0.63179 0.05838
 C1969 C 0.73273 0.61225 0.03359
 C1970 C 0.72232 0.62694 0.01148
 C1971 C 0.72363 0.65050 0.02699
 C1972 C 0.73416 0.63619 0.04896
 H1973 H 0.68292 0.66067 0.03744
 H1974 H 0.68005 0.61675 0.00954
 H1975 H 0.70168 0.63361 0.07774
 H1976 H 0.74716 0.59793 0.03257
 H1977 H 0.72843 0.62523 -0.00788
 H1978 H 0.74998 0.64202 0.06041
 C1979 C 0.23395 0.61458 0.70116
 C1980 C 0.20771 0.61904 0.69136
 C1981 C 0.20633 0.64267 0.70677
 C1982 C 0.23246 0.63853 0.71650
 C1983 C 0.19545 0.62838 0.72858
 C1984 C 0.19697 0.60452 0.71322
 C1985 C 0.22310 0.60031 0.72298
 C1986 C 0.22172 0.62387 0.73846
 H1987 H 0.24988 0.60871 0.68994
 H1988 H 0.20184 0.61724 0.67190
 H1989 H 0.24694 0.65281 0.71772
 H1990 H 0.17948 0.63420 0.73977
 H1991 H 0.18246 0.59025 0.71194
 H1992 H 0.22760 0.62557 0.75792
 C1993 C 0.23200 0.11244 0.19764
 C1994 C 0.20558 0.11695 0.18827
 C1995 C 0.20445 0.14049 0.20384
 C1996 C 0.23075 0.13634 0.21309
 C1997 C 0.19391 0.12613 0.22576
 C1998 C 0.19521 0.10231 0.21028
 C1999 C 0.22151 0.09808 0.21957
 C2000 C 0.22036 0.12161 0.23515
 H2001 H 0.24773 0.10659 0.18612
 H2002 H 0.19937 0.11524 0.16891
 H2003 H 0.24526 0.15060 0.21416
 H2004 H 0.17814 0.13185 0.23728
 H2005 H 0.18077 0.08798 0.20919
 H2006 H 0.22657 0.12324 0.25452
 C2007 C 0.70005 1.11407 0.73387
 C2008 C 0.71528 1.13804 0.73199
 C2009 C 0.70546 1.14179 0.70577
 C2010 C 0.69015 1.11815 0.70755
 C2011 C 0.72721 1.12743 0.69497
 C2012 C 0.73718 1.12331 0.72132
 C2013 C 0.72181 1.09973 0.72309
 C2014 C 0.71196 1.10356 0.69688
 H2015 H 0.68894 1.10837 0.74996
 H2016 H 0.71651 1.15252 0.74630
 H2017 H 0.67073 1.11623 0.70175
 H2018 H 0.73828 1.13308 0.67884
 H2019 H 0.75661 1.12514 0.72713
 H2020 H 0.71068 1.08908 0.68256
 C2021 C 0.73857 0.62404 0.22062
 C2022 C 0.72871 0.62862 0.19429
 C2023 C 0.70686 0.64272 0.20524
 C2024 C 0.71657 0.63852 0.23143
 C2025 C 0.69163 0.61900 0.20650
 C2026 C 0.71354 0.60465 0.19569
 C2027 C 0.72328 0.60037 0.22187
 C2028 C 0.70141 0.61448 0.23279
 H2029 H 0.75797 0.62583 0.22654
 H2030 H 0.73986 0.63459 0.17833
 H2031 H 0.71768 0.65273 0.24602
 H2032 H 0.67223 0.61710 0.20059
 H2033 H 0.71237 0.59044 0.18108
 H2034 H 0.69022 0.60848 0.24871
 C2035 C 0.51549 0.13520 0.69974
 C2036 C 0.54183 0.13092 0.69017
 C2037 C 0.54327 0.10726 0.70548
 C2038 C 0.51704 0.11120 0.71498
 C2039 C 0.55390 0.12154 0.72746
 C2040 C 0.55233 0.14543 0.71220
 C2041 C 0.52610 0.14946 0.72174
 C2042 C 0.52754 0.12585 0.73711
 H2043 H 0.49960 0.14102 0.68840
 H2044 H 0.54783 0.13283 0.67078
 H2045 H 0.50264 0.09683 0.71599
 H2046 H 0.56983 0.11579 0.73878
 H2047 H 0.56675 0.15980 0.71113
 H2048 H 0.52152 0.12404 0.75650
 C2049 C 1.05444 0.14576 0.21249
 C2050 C 1.05649 0.12190 0.22775
 C2051 C 1.04574 0.10748 0.20593
 C2052 C 1.04383 0.13111 0.19061
 C2053 C 1.01959 0.11113 0.21575
 C2054 C 1.03019 0.12592 0.23773
 C2055 C 1.02829 0.14949 0.22234
 C2056 C 1.01757 0.13507 0.20050
 H2057 H 1.06865 0.16031 0.21122
 H2058 H 1.07263 0.11632 0.23885
 H2059 H 1.04957 0.13305 0.17114
 H2060 H 1.00537 0.09659 0.21696
 H2061 H 1.02444 0.12407 0.25719
 H2062 H 1.00148 0.14068 0.18934
 C2063 C 0.21283 0.64603 0.55289
 C2064 C 0.19083 0.63152 0.54239
 C2065 C 0.20619 0.60790 0.54361
 C2066 C 0.22812 0.62217 0.55424
 C2067 C 0.21550 0.61202 0.51729
 C2068 C 0.20022 0.63598 0.51597
 C2069 C 0.22217 0.65023 0.52658
 C2070 C 0.23759 0.62666 0.52778
 H2071 H 0.21179 0.66031 0.56744
 H2072 H 0.17152 0.63333 0.54853
 H2073 H 0.23951 0.61634 0.57011
 H2074 H 0.21648 0.59773 0.50277
 H2075 H 0.18880 0.64186 0.50014
 H2076 H 0.25691 0.62496 0.52164
 C2077 C 0.22078 0.12580 1.01358
 C2078 C 0.23102 0.11119 1.03582
 C2079 C 0.20469 0.10742 1.04513
 C2080 C 0.19431 0.12167 1.02306
 C2081 C 0.20621 0.13114 1.06040
 C2082 C 0.23264 0.13523 1.05100
 C2083 C 0.22229 0.14946 1.02891
 C2084 C 0.19596 0.14562 1.03826
 H2085 H 0.22692 0.12387 0.99424
 H2086 H 0.24533 0.09673 1.03493
 H2087 H 0.17842 0.11595 1.01165
 H2088 H 0.20008 0.13317 1.07974
 H2089 H 0.24849 0.14099 1.06245
 H2090 H 0.18165 0.16008 1.03921
 C2091 C 0.19668 0.71299 0.60444
 C2092 C 0.20720 0.69101 0.61897
 C2093 C 0.20606 0.70647 0.64260
 C2094 C 0.19543 0.72839 0.62830
 C2095 C 0.23231 0.71583 0.63836
 C2096 C 0.23355 0.70045 0.61442
 C2097 C 0.22293 0.72238 0.60014
 C2098 C 0.22181 0.73790 0.62370
 H2099 H 0.18213 0.71188 0.59020
 H2100 H 0.20106 0.67164 0.61720
 H2101 H 0.17962 0.73980 0.63415
 H2102 H 0.24686 0.71689 0.65260
 H2103 H 0.24931 0.68900 0.60852
 H2104 H 0.22795 0.75727 0.62537
 C2105 C 0.19984 0.23240 1.11535
 C2106 C 0.19012 0.20595 1.11906
 C2107 C 0.20551 0.20391 1.14264
 C2108 C 0.21512 0.23025 1.13930
 C2109 C 0.22730 0.19345 1.12812
 C2110 C 0.21199 0.19565 1.10429
 C2111 C 0.22165 0.22198 1.10083
 C2112 C 0.23708 0.21994 1.12438
 H2113 H 0.18861 0.24850 1.10990
 H2114 H 0.17074 0.20005 1.11702
 H2115 H 0.21630 0.24435 1.15399
 H2116 H 0.23853 0.17732 1.13346
 H2117 H 0.21076 0.18155 1.08958
 H2118 H 0.25646 0.22585 1.12628
 C2119 C 0.72132 0.51227 0.12541
 C2120 C 0.69503 0.52208 0.12091
 C2121 C 0.70587 0.54393 0.10665
 C2122 C 0.73202 0.53426 0.11079
 C2123 C 0.70731 0.55930 0.13032
 C2124 C 0.69660 0.53739 0.14482
 C2125 C 0.72275 0.52770 0.14902
 C2126 C 0.73356 0.54956 0.13477
 H2127 H 0.72721 0.49283 0.12368
 H2128 H 0.67906 0.51086 0.11506
 H2129 H 0.74648 0.53310 0.09651
 H2130 H 0.70143 0.57873 0.13216
 H2131 H 0.68213 0.53861 0.15910
 H2132 H 0.74949 0.56083 0.14065
 C2133 C 0.69605 1.03731 0.64634
 C2134 C 0.70656 1.05960 0.63228
 C2135 C 0.70527 1.04471 0.60832
 C2136 C 0.69463 1.02247 0.62214
 C2137 C 0.73150 1.03518 0.61226
 C2138 C 0.73289 1.05001 0.63655
 C2139 C 0.72228 1.02775 0.65036
 C2140 C 0.72100 1.01279 0.62645
 H2141 H 0.68156 1.03810 0.66063
 H2142 H 0.70051 1.07894 0.63450
 H2143 H 0.67876 1.01122 0.61607
 H2144 H 0.74598 1.03445 0.59797
 H2145 H 0.74872 1.06130 0.64265
 H2146 H 0.72706 0.99345 0.62432
 C2147 C 0.51288 0.22183 0.62658
 C2148 C 0.53509 0.23229 0.61216
 C2149 C 0.54443 0.20596 0.60813
 C2150 C 0.52238 0.19538 0.62218
 C2151 C 0.55960 0.20720 0.63191
 C2152 C 0.55018 0.23363 0.63628
 C2153 C 0.52811 0.22306 0.65031
 C2154 C 0.53748 0.19674 0.64620
 H2155 H 0.49358 0.22799 0.62468
 H2156 H 0.53424 0.24679 0.59786
 H2157 H 0.51103 0.17951 0.61623
 H2158 H 0.57890 0.20105 0.63391
 H2159 H 0.56155 0.24945 0.64229
 H2160 H 0.53840 0.18222 0.66050
 C2161 C 1.03773 0.19556 0.14574
 C2162 C 1.02234 0.19380 0.12190
 C2163 C 1.04413 0.20447 0.10750
 C2164 C 1.05959 0.20607 0.13107
 C2165 C 1.03461 0.23075 0.11137
 C2166 C 1.01267 0.22024 0.12618
 C2167 C 1.02817 0.22184 0.14972
 C2168 C 1.04998 0.23246 0.13530
 H2169 H 1.03895 0.18121 0.16017
 H2170 H 1.01103 0.17779 0.11631
 H2171 H 1.07897 0.20011 0.13294
 H2172 H 1.03343 0.24512 0.09696
 H2173 H 0.99330 0.22621 0.12445
 H2174 H 1.06129 0.24844 0.14100
 C2175 C 0.61385 0.19954 0.73378
 C2176 C 0.61795 0.18995 0.70735
 C2177 C 0.64146 0.20545 0.70569
 C2178 C 0.63769 0.21495 0.73203
 C2179 C 0.62697 0.22728 0.69516
 C2180 C 0.60324 0.21185 0.69694
 C2181 C 0.59940 0.22138 0.72328
 C2182 C 0.62285 0.23694 0.72163
 H2183 H 0.60826 0.18818 0.74976
 H2184 H 0.61611 0.17055 0.70133
 H2185 H 0.65216 0.21612 0.74634
 H2186 H 0.63251 0.23860 0.67914
 H2187 H 0.58877 0.21062 0.68263
 H2188 H 0.62458 0.25634 0.72766
 C2189 C 1.11433 0.19911 0.23319
 C2190 C 1.11844 0.18946 0.20678
 C2191 C 1.14224 0.20452 0.20535
 C2192 C 1.13844 0.21408 0.23165
 C2193 C 1.12824 0.22662 0.19471
 C2194 C 1.10421 0.21162 0.19628
 C2195 C 1.10034 0.22123 0.22258
 C2196 C 1.12408 0.23635 0.22115
 H2197 H 1.10841 0.18783 0.24911
 H2198 H 1.11632 0.17009 0.20075
 H2199 H 1.15282 0.21496 0.24608
 H2200 H 1.13411 0.23785 0.17875
 H2201 H 1.08984 0.21068 0.18184
 H2202 H 1.12612 0.25572 0.22720
 C2203 C 0.12659 0.72230 0.51232
 C2204 C 0.12203 0.69590 0.52193
 C2205 C 0.10777 0.70663 0.54381
 C2206 C 0.11197 0.73290 0.53435
 C2207 C 0.13134 0.70792 0.55928
 C2208 C 0.14583 0.69731 0.53734
 C2209 C 0.15009 0.72358 0.52785
 C2210 C 0.13585 0.73428 0.54975
 H2211 H 0.12492 0.72836 0.49292
 H2212 H 0.11619 0.67998 0.51058
 H2213 H 0.09774 0.74742 0.53324
 H2214 H 0.13311 0.70187 0.57868
 H2215 H 0.16006 0.68277 0.53850
 H2216 H 0.14173 0.75015 0.56114
 C2217 C 0.12634 0.23674 1.02911
 C2218 C 0.11160 0.21474 1.01850
 C2219 C 0.10755 0.20522 1.04477
 C2220 C 0.12192 0.22706 1.05551
 C2221 C 0.13108 0.18976 1.04334
 C2222 C 0.13545 0.19936 1.01697
 C2223 C 0.14980 0.22122 1.02769
 C2224 C 0.14568 0.21166 1.05396
 H2225 H 0.12467 0.25615 1.02311
 H2226 H 0.09729 0.21590 1.00404
 H2227 H 0.11621 0.23836 1.07149
 H2228 H 0.13285 0.17035 1.04933
 H2229 H 0.14121 0.18802 1.00104
 H2230 H 0.15999 0.21045 1.06843
 C2231 C 0.63611 0.51675 0.20032
 C2232 C 0.61238 0.51823 0.21587
 C2233 C 0.60813 0.54442 0.20626
 C2234 C 0.63154 0.54305 0.19064
 C2235 C 0.62260 0.55532 0.22797
 C2236 C 0.62722 0.52899 0.23773
 C2237 C 0.65057 0.52762 0.22204
 C2238 C 0.64626 0.55381 0.21241
 H2239 H 0.64185 0.50081 0.18899
 H2240 H 0.59815 0.50371 0.21718
 H2241 H 0.63314 0.54896 0.17119
 H2242 H 0.61688 0.57131 0.23924
 H2243 H 0.62574 0.52306 0.25718
 H2244 H 0.66049 0.56834 0.21105
 C2245 C 0.64560 1.05321 0.71278
 C2246 C 0.63131 1.04246 0.69070
 C2247 C 0.60760 1.04372 0.70587
 C2248 C 0.62165 1.05460 0.72789
 C2249 C 0.61175 1.01752 0.71551
 C2250 C 0.63578 1.01616 0.70042
 C2251 C 0.64982 1.02700 0.72245
 C2252 C 0.62616 1.02826 0.73768
 H2253 H 0.65980 1.06779 0.71173
 H2254 H 0.63325 1.04841 0.67130
 H2255 H 0.61569 1.07054 0.73910
 H2256 H 0.59756 1.00294 0.71651
 H2257 H 0.64178 1.00025 0.68916
 H2258 H 0.62432 1.02230 0.75709
 C2259 C 0.86288 0.44859 0.26806
 C2260 C 0.88691 0.46366 0.27009
 C2261 C 0.89045 0.45392 0.29636
 C2262 C 0.86674 0.43877 0.29444
 C2263 C 0.87622 0.47588 0.30699
 C2264 C 0.87234 0.48577 0.28058
 C2265 C 0.84867 0.47057 0.27866
 C2266 C 0.85226 0.46080 0.30493
 H2267 H 0.85719 0.43740 0.25197
 H2268 H 0.90144 0.46471 0.25587
 H2269 H 0.86471 0.41935 0.30031
 H2270 H 0.88184 0.48702 0.32313
 H2271 H 0.87438 0.50519 0.27474
 H2272 H 0.83767 0.45970 0.31906
 C2273 C 0.85219 0.96183 0.80575
 C2274 C 0.86685 0.93995 0.79521
 C2275 C 0.89037 0.95540 0.79694
 C2276 C 0.87597 0.97720 0.80762
 C2277 C 0.88656 0.96502 0.77067
 C2278 C 0.86271 0.94966 0.76884
 C2279 C 0.84832 0.97148 0.77949
 C2280 C 0.87180 0.98698 0.78121
 H2281 H 0.83767 0.96060 0.81994
 H2282 H 0.86510 0.92052 0.80114
 H2283 H 0.88159 0.98843 0.82371
 H2284 H 0.90100 0.96622 0.75637
 H2285 H 0.85705 0.93837 0.75281
 H2286 H 0.87354 1.00642 0.77531
 C2287 C 0.37773 0.26390 0.78071
 C2288 C 0.37362 0.27357 0.80717
 C2289 C 0.35944 0.29559 0.79659
 C2290 C 0.36322 0.28607 0.77026
 C2291 C 0.38314 0.31079 0.79508
 C2292 C 0.39756 0.28870 0.80551
 C2293 C 0.40139 0.27915 0.77921
 C2294 C 0.38724 0.30119 0.76864
 H2295 H 0.37578 0.24452 0.77467
 H2296 H 0.36788 0.26229 0.82314
 H2297 H 0.34881 0.28510 0.75588
 H2298 H 0.38510 0.33017 0.80114
 H2299 H 0.41204 0.28971 0.81981
 H2300 H 0.39306 0.31251 0.75273
 C2301 C 0.89826 0.30432 0.28860
 C2302 C 0.87453 0.30626 0.27314
 C2303 C 0.86004 0.29540 0.29481
 C2304 C 0.88352 0.29360 0.31033
 C2305 C 0.86389 0.26922 0.28496
 C2306 C 0.87872 0.27994 0.26315
 C2307 C 0.90216 0.27815 0.27872
 C2308 C 0.88769 0.26731 0.30040
 H2309 H 0.91277 0.31854 0.29002
 H2310 H 0.86897 0.32241 0.26202
 H2311 H 0.88524 0.29938 0.32983
 H2312 H 0.84945 0.25490 0.28358
 H2313 H 0.87704 0.27418 0.24365
 H2314 H 0.89333 0.25122 0.31157
 C2315 C 0.35199 0.80511 0.46057
 C2316 C 0.37591 0.80684 0.47577
 C2317 C 0.39014 0.79644 0.45371
 C2318 C 0.36647 0.79485 0.43844
 C2319 C 0.38645 0.77006 0.46306
 C2320 C 0.37188 0.78032 0.48527
 C2321 C 0.34825 0.77875 0.46996
 C2322 C 0.36245 0.76836 0.44788
 H2323 H 0.33746 0.81933 0.45961
 H2324 H 0.38158 0.82279 0.48715
 H2325 H 0.36453 0.80100 0.41909
 H2326 H 0.40092 0.75577 0.46398
 H2327 H 0.37382 0.77420 0.50463
 H2328 H 0.35669 0.75247 0.43646
 C2329 C 0.35183 0.28855 0.94605
 C2330 C 0.36624 0.31073 0.95639
 C2331 C 0.38995 0.29559 0.95488
 C2332 C 0.37580 0.27348 0.94439
 C2333 C 0.38624 0.28619 0.98124
 C2334 C 0.36220 0.30124 0.98286
 C2335 C 0.34806 0.27911 0.97239
 C2336 C 0.37174 0.26392 0.97089
 H2337 H 0.33733 0.28945 0.93178
 H2338 H 0.36427 0.33007 0.95026
 H2339 H 0.38154 0.26216 0.92844
 H2340 H 0.40068 0.28533 0.99560
 H2341 H 0.35640 0.31262 0.99875
 H2342 H 0.37372 0.24458 0.97700
 C2343 C 0.78871 0.44508 0.35196
 C2344 C 0.81072 0.45552 0.36653
 C2345 C 0.79535 0.45432 0.39014
 C2346 C 0.77341 0.44374 0.37583
 C2347 C 0.78609 0.48065 0.38604
 C2348 C 0.80138 0.48196 0.36210
 C2349 C 0.77942 0.47140 0.34781
 C2350 C 0.76400 0.47021 0.37138
 H2351 H 0.78971 0.43065 0.33759
 H2352 H 0.83003 0.44932 0.36483
 H2353 H 0.76200 0.42789 0.38165
 H2354 H 0.78513 0.49515 0.40035
 H2355 H 0.81284 0.49774 0.35623
 H2356 H 0.74469 0.47639 0.37306
 C2357 C 0.78940 0.94497 0.85270
 C2358 C 0.81140 0.95575 0.86705
 C2359 C 0.79644 0.95399 0.89089
 C2360 C 0.77451 0.94307 0.87678
 C2361 C 0.78652 0.98014 0.88716
 C2362 C 0.80140 0.98201 0.86300
 C2363 C 0.77945 0.97111 0.84892
 C2364 C 0.76444 0.96936 0.87272
 H2365 H 0.79049 0.93071 0.83818
 H2366 H 0.83081 0.95000 0.86501
 H2367 H 0.76353 0.92692 0.88259
 H2368 H 0.78547 0.99450 0.90161
 H2369 H 0.81243 0.99810 0.85713
 H2370 H 0.74502 0.97507 0.87478
 C2371 C 0.26777 0.80210 0.38700
 C2372 C 0.29409 0.81188 0.38293
 C2373 C 0.29587 0.79644 0.35934
 C2374 C 0.26966 0.78675 0.36307
 C2375 C 0.30652 0.77466 0.37385
 C2376 C 0.30459 0.79003 0.39768
 C2377 C 0.27840 0.78030 0.40146
 C2378 C 0.28018 0.76482 0.37791
 H2379 H 0.25176 0.81334 0.39262
 H2380 H 0.29997 0.83133 0.38475
 H2381 H 0.25541 0.78550 0.34855
 H2382 H 0.32258 0.76346 0.36831
 H2383 H 0.31875 0.79132 0.41227
 H2384 H 0.27432 0.74537 0.37612
 C2385 C 0.30117 0.26765 0.88837
 C2386 C 0.28604 0.26934 0.86432
 C2387 C 0.29557 0.29564 0.86057
 C2388 C 0.31079 0.29406 0.88429
 C2389 C 0.27364 0.30623 0.87481
 C2390 C 0.26396 0.27979 0.87891
 C2391 C 0.27923 0.27822 0.90260
 C2392 C 0.28879 0.30451 0.89879
 H2393 H 0.31245 0.25171 0.89417
 H2394 H 0.28502 0.25499 0.84985
 H2395 H 0.33014 0.30010 0.88622
 H2396 H 0.26241 0.32223 0.86908
 H2397 H 0.24460 0.27378 0.87699
 H2398 H 0.28984 0.31876 0.91333
 C2399 C 0.48536 0.27977 0.87266
 C2400 C 0.47584 0.30628 0.87667
 C2401 C 0.45386 0.29588 0.89096
 C2402 C 0.46322 0.26950 0.88729
 C2403 C 0.43862 0.29423 0.86724
 C2404 C 0.46068 0.30449 0.85270
 C2405 C 0.47008 0.27813 0.84897
 C2406 C 0.44807 0.26775 0.86325
 H2407 H 0.50468 0.27368 0.87461
 H2408 H 0.48717 0.32226 0.88234
 H2409 H 0.46417 0.25523 0.90181
 H2410 H 0.41931 0.30035 0.86529
 H2411 H 0.45969 0.31868 0.83811
 H2412 H 0.43669 0.25183 0.85752
 C2413 C 0.94560 0.28826 0.35234
 C2414 C 0.94420 0.27300 0.37626
 C2415 C 0.95470 0.29502 0.39054
 C2416 C 0.95597 0.31036 0.36688
 C2417 C 0.98100 0.28574 0.38654
 C2418 C 0.97063 0.26356 0.37191
 C2419 C 0.97189 0.27894 0.34828
 C2420 C 0.98237 0.30099 0.36255
 H2421 H 0.93123 0.28924 0.33793
 H2422 H 0.92837 0.26157 0.38205
 H2423 H 0.94979 0.32970 0.36508
 H2424 H 0.99544 0.28480 0.40089
 H2425 H 0.97679 0.24422 0.37369
 H2426 H 0.99814 0.31247 0.35670
 C2427 C 0.44501 0.35170 0.78954
 C2428 C 0.45537 0.36624 0.81164
 C2429 C 0.45385 0.38990 0.79635
 C2430 C 0.44336 0.37562 0.77433
 C2431 C 0.48014 0.38612 0.78697
 C2432 C 0.48176 0.36212 0.80216
 C2433 C 0.47129 0.34786 0.78012
 C2434 C 0.46978 0.37149 0.76478
 H2435 H 0.43078 0.33717 0.79053
 H2436 H 0.44926 0.36437 0.83100
 H2437 H 0.42744 0.38134 0.76298
 H2438 H 0.49446 0.40059 0.78602
 H2439 H 0.49763 0.35634 0.81356
 H2440 H 0.47586 0.37335 0.74542
 C2441 C 0.94876 0.36215 0.26808
 C2442 C 0.93905 0.36605 0.29449
 C2443 C 0.95422 0.38979 0.29635
 C2444 C 0.96383 0.38621 0.27005
 C2445 C 0.97614 0.37549 0.30692
 C2446 C 0.96105 0.35151 0.30492
 C2447 C 0.97070 0.34788 0.27863
 C2448 C 0.98591 0.37158 0.28048
 H2449 H 0.93752 0.35646 0.25203
 H2450 H 0.91969 0.36405 0.30042
 H2451 H 0.96487 0.40077 0.25582
 H2452 H 0.98733 0.38111 0.32303
 H2453 H 0.95998 0.33689 0.31907
 H2454 H 1.00528 0.37359 0.27459
 C2455 C 0.26474 0.87256 0.47075
 C2456 C 0.28698 0.88705 0.48110
 C2457 C 0.29618 0.89103 0.45472
 C2458 C 0.27410 0.87688 0.44424
 C2459 C 0.31138 0.86730 0.45594
 C2460 C 0.30208 0.86299 0.48243
 C2461 C 0.27998 0.84887 0.47197
 C2462 C 0.28922 0.85290 0.44560
 H2463 H 0.24547 0.87443 0.47699
 H2464 H 0.28617 0.90140 0.49558
 H2465 H 0.26268 0.88274 0.42840
 H2466 H 0.33065 0.86541 0.44969
 H2467 H 0.31354 0.85705 0.49821
 H2468 H 0.29007 0.83850 0.43118
 C2469 C 0.26824 0.36223 0.94966
 C2470 C 0.27013 0.38628 0.96480
 C2471 C 0.29635 0.38996 0.95515
 C2472 C 0.29457 0.36623 0.93992
 C2473 C 0.30696 0.37567 0.97711
 C2474 C 0.28060 0.37165 0.98691
 C2475 C 0.27883 0.34796 0.97163
 C2476 C 0.30504 0.35170 0.96195
 H2477 H 0.25225 0.35650 0.93840
 H2478 H 0.25588 0.40078 0.96587
 H2479 H 0.30048 0.36427 0.92051
 H2480 H 0.32302 0.38134 0.98831
 H2481 H 0.27473 0.37361 1.00633
 H2482 H 0.31918 0.33712 0.96084
 C2483 C 0.78080 0.37798 0.26291
 C2484 C 0.80704 0.37373 0.27299
 C2485 C 0.79612 0.35936 0.29472
 C2486 C 0.77003 0.36326 0.28479
 C2487 C 0.79440 0.38298 0.31010
 C2488 C 0.80518 0.39760 0.28830
 C2489 C 0.77909 0.40156 0.27833
 C2490 C 0.76819 0.38721 0.30009
 H2491 H 0.77509 0.37620 0.24341
 H2492 H 0.82314 0.36805 0.26192
 H2493 H 0.75567 0.34885 0.28347
 H2494 H 0.80014 0.38478 0.32960
 H2495 H 0.81943 0.41208 0.28965
 H2496 H 0.75214 0.39296 0.31120
   
