data_POSCAR
  _audit_creation_date              2014-09-24
  _audit_creation_method            'ToBaCCo'
  _symmetry_space_group_name_H-M    'P1'
  _symmetry_Int_Tables_number       1
  _symmetry_cell_setting            triclinic
  loop_
  _symmetry_equiv_pos_as_xyz
 x,y,z
_cell_length_a 65.7493
_cell_length_b 65.8048
_cell_length_c 60.4339
_cell_angle_alpha 90.081800
_cell_angle_beta 89.868000
_cell_angle_gamma 90.856900
loop_
  _atom_site_label
  _atom_site_type_symbol
  _atom_site_fract_x
  _atom_site_fract_y
  _atom_site_fract_z
C1 C 0.37916 0.01811 0.28790
 C2 C 0.36602 0.03575 0.28030
 C3 C 0.35487 0.03141 0.26189
 C4 C 0.35777 0.00986 0.25270
 C5 C 0.36437 0.00009 0.29089
 C6 C 0.35323 -0.00422 0.27242
 C7 C 0.39214 0.01257 0.26770
 C8 C 0.38086 0.00822 0.24932
 H9 H 0.36582 0.05046 0.28850
 H10 H 0.34859 0.00640 0.23770
 H11 H 0.36391 -0.00937 0.30561
 H12 H 0.40863 0.01178 0.26801
 C13 C 0.11746 -0.01559 0.76662
 C14 C 0.13155 -0.03272 0.75947
 C15 C 0.14287 -0.02807 0.74121
 C16 C 0.13907 -0.00677 0.73174
 C17 C 0.13157 0.00300 0.76981
 C18 C 0.14286 0.00759 0.75146
 C19 C 0.10522 -0.01099 0.74732
 C20 C 0.11719 -0.00611 0.72817
 H21 H 0.13267 -0.04709 0.76820
 H22 H 0.14841 -0.00312 0.71685
 H23 H 0.13157 0.01244 0.78458
 H24 H 0.08874 -0.00993 0.74770
 C25 C 0.61933 0.48543 0.26818
 C26 C 0.63266 0.46797 0.26045
 C27 C 0.64451 0.47274 0.24267
 C28 C 0.64204 0.49454 0.23413
 C29 C 0.63411 0.50326 0.27236
 C30 C 0.64593 0.50800 0.25450
 C31 C 0.60709 0.49165 0.24775
 C32 C 0.61909 0.49646 0.22997
 H33 H 0.63300 0.45325 0.26858
 H34 H 0.65178 0.49832 0.21961
 H35 H 0.63408 0.51230 0.28743
 H36 H 0.59064 0.49287 0.24760
 C37 C 0.87903 0.51932 0.78819
 C38 C 0.86523 0.53650 0.78075
 C39 C 0.85400 0.53176 0.76250
 C40 C 0.85749 0.51029 0.75332
 C41 C 0.86487 0.50085 0.79142
 C42 C 0.85365 0.49612 0.77313
 C43 C 0.89195 0.51415 0.76782
 C44 C 0.88058 0.50938 0.74961
 H45 H 0.86471 0.55123 0.78887
 H46 H 0.84823 0.50651 0.73847
 H47 H 0.86502 0.49133 0.80610
 H48 H 0.90846 0.51377 0.76793
 C49 C 0.27439 0.40437 0.99558
 C50 C 0.26855 0.38955 1.01420
 C51 C 0.25254 0.37703 1.00893
 C52 C 0.24397 0.38031 0.98561
 C53 C 0.27833 0.39100 0.97536
 C54 C 0.26246 0.37843 0.97018
 C55 C 0.25476 0.41570 0.99037
 C56 C 0.23881 0.40302 0.98525
 H57 H 0.27539 0.38997 1.03055
 H58 H 0.23105 0.37000 0.98122
 H59 H 0.29252 0.39128 0.96608
 H60 H 0.25303 0.43193 0.99296
 C61 C 0.76628 0.09141 0.98817
 C62 C 0.76078 0.10608 0.96948
 C63 C 0.74559 0.11905 0.97513
 C64 C 0.73742 0.11620 0.99885
 C65 C 0.77160 0.10511 1.00791
 C66 C 0.75650 0.11809 1.01349
 C67 C 0.74738 0.08109 0.99415
 C68 C 0.73154 0.09480 1.00002
 H69 H 0.76778 0.10585 0.95318
 H70 H 0.72516 0.12689 1.00346
 H71 H 0.78573 0.10413 1.01713
 H72 H 0.74501 0.06474 0.99290
 C73 C 0.26725 0.59197 0.48805
 C74 C 0.26187 0.60671 0.46944
 C75 C 0.24645 0.61946 0.47485
 C76 C 0.23789 0.61643 0.49833
 C77 C 0.27190 0.60543 0.50811
 C78 C 0.25658 0.61819 0.51347
 C79 C 0.24725 0.58088 0.49374
 C80 C 0.23191 0.59377 0.49909
 H81 H 0.26910 0.60664 0.45325
 H82 H 0.22540 0.62691 0.50275
 H83 H 0.28585 0.60452 0.51766
 H84 H 0.24515 0.56450 0.49266
 C85 C 0.77420 0.90425 0.49718
 C86 C 0.76822 0.88942 0.51575
 C87 C 0.75234 0.87680 0.51027
 C88 C 0.74404 0.88001 0.48682
 C89 C 0.77846 0.89089 0.47705
 C90 C 0.76273 0.87822 0.47167
 C91 C 0.75457 0.91546 0.49168
 C92 C 0.73876 0.90269 0.48635
 H93 H 0.77485 0.88992 0.53220
 H94 H 0.73123 0.86962 0.48226
 H95 H 0.79275 0.89126 0.46796
 H96 H 0.75272 0.93168 0.49425
 C97 C -0.00516 0.27793 0.39046
 C98 C 0.01297 0.27932 0.37440
 C99 C 0.01448 0.26281 0.36077
 C100 C -0.00228 0.24648 0.36445
 C101 C -0.02292 0.27462 0.37663
 C102 C -0.02135 0.25738 0.36236
 C103 C -0.00222 0.25787 0.40295
 C104 C -0.00068 0.24139 0.38931
 H105 H 0.02380 0.29195 0.37415
 H106 H -0.00105 0.23305 0.35336
 H107 H -0.03612 0.28439 0.37684
 H108 H -0.00132 0.25682 0.42087
 C109 C 0.00989 0.76693 0.10893
 C110 C -0.00842 0.76751 0.12463
 C111 C -0.00961 0.75133 0.13865
 C112 C 0.00762 0.73595 0.13578
 C113 C 0.02843 0.76501 0.12403
 C114 C 0.02726 0.74884 0.13806
 C115 C 0.00803 0.74641 0.09698
 C116 C 0.00683 0.73021 0.11105
 H117 H -0.01968 0.77943 0.12436
 H118 H 0.00667 0.72277 0.14723
 H119 H 0.04130 0.77557 0.12373
 H120 H 0.00761 0.74484 0.07909
 C121 C 0.50971 0.26606 0.60990
 C122 C 0.49133 0.26656 0.62550
 C123 C 0.49014 0.25038 0.63953
 C124 C 0.50747 0.23509 0.63677
 C125 C 0.52819 0.26424 0.62509
 C126 C 0.52704 0.24808 0.63913
 C127 C 0.50800 0.24552 0.59796
 C128 C 0.50682 0.22932 0.61204
 H129 H 0.47998 0.27839 0.62512
 H130 H 0.50655 0.22192 0.64823
 H131 H 0.54102 0.27485 0.62482
 H132 H 0.50762 0.24393 0.58007
 C133 C 0.49499 0.77760 0.89222
 C134 C 0.51316 0.77884 0.87621
 C135 C 0.51481 0.76213 0.86291
 C136 C 0.49817 0.74574 0.86687
 C137 C 0.47642 0.77395 0.87731
 C138 C 0.47807 0.75726 0.86401
 C139 C 0.49751 0.75881 0.90442
 C140 C 0.49927 0.74134 0.89050
 H141 H 0.52387 0.79157 0.87568
 H142 H 0.49949 0.73215 0.85603
 H143 H 0.46326 0.78375 0.87715
 H144 H 0.49825 0.75804 0.92237
 C145 C -0.23074 0.63074 0.96255
 C146 C -0.21348 0.61709 0.97013
 C147 C -0.21831 0.60572 0.98826
 C148 C -0.23994 0.60892 0.99719
 C149 C -0.24903 0.61640 0.95901
 C150 C -0.25384 0.60504 0.97718
 C151 C -0.23628 0.64347 0.98292
 C152 C -0.24113 0.63196 1.00102
 H153 H -0.19865 0.61675 0.96216
 H154 H -0.24379 0.59954 1.01195
 H155 H -0.25831 0.61642 0.94415
 H156 H -0.23668 0.65997 0.98294
 C157 C -0.26388 0.36738 0.48295
 C158 C -0.28173 0.38028 0.49072
 C159 C -0.27742 0.39164 0.50902
 C160 C -0.25570 0.38905 0.51792
 C161 C -0.24624 0.38263 0.47952
 C162 C -0.24198 0.39396 0.49792
 C163 C -0.25816 0.35524 0.50194
 C164 C -0.25363 0.36724 0.52114
 H165 H -0.29624 0.38083 0.48216
 H166 H -0.25232 0.39839 0.53287
 H167 H -0.23715 0.38346 0.46450
 H168 H -0.25642 0.33884 0.50139
 C169 C 0.23673 -0.13082 -0.01688
 C170 C 0.21877 -0.11776 -0.00980
 C171 C 0.22279 -0.10601 0.00829
 C172 C 0.24435 -0.10841 0.01767
 C173 C 0.25444 -0.11567 -0.02036
 C174 C 0.25840 -0.10394 -0.00218
 C175 C 0.24214 -0.14256 0.00254
 C176 C 0.24636 -0.13014 0.02150
 H177 H 0.20435 -0.11748 -0.01856
 H178 H 0.24750 -0.09874 0.03242
 H179 H 0.26382 -0.11521 -0.03519
 H180 H 0.24390 -0.15896 0.00245
 C181 C 0.26936 1.12988 0.46163
 C182 C 0.28655 1.11613 0.46917
 C183 C 0.28179 1.10500 0.48748
 C184 C 0.26030 1.10851 0.49663
 C185 C 0.25088 1.11571 0.45848
 C186 C 0.24614 1.10458 0.47684
 C187 C 0.26415 1.14287 0.48193
 C188 C 0.25937 1.13160 0.50020
 H189 H 0.30131 1.11559 0.46107
 H190 H 0.25650 1.09932 0.51154
 H191 H 0.24138 1.11577 0.44379
 H192 H 0.26379 1.15937 0.48172
 C193 C 0.15316 0.52431 0.25327
 C194 C 0.13844 0.51798 0.23475
 C195 C 0.12635 0.50169 0.24018
 C196 C 0.12992 0.49333 0.26356
 C197 C 0.13973 0.52799 0.27351
 C198 C 0.12759 0.51183 0.27886
 C199 C 0.16503 0.50504 0.25859
 C200 C 0.15279 0.48881 0.26388
 H201 H 0.13855 0.52482 0.21839
 H202 H 0.11996 0.48017 0.26807
 H203 H 0.13972 0.54218 0.28274
 H204 H 0.18134 0.50377 0.25609
 C205 C -0.15860 1.01659 0.26178
 C206 C -0.14393 1.01094 0.28042
 C207 C -0.13129 0.99546 0.27485
 C208 C -0.13444 0.98717 0.25123
 C209 C -0.14488 1.02147 0.24190
 C210 C -0.13224 1.00607 0.23637
 C211 C -0.16934 0.99787 0.25607
 C212 C -0.15598 0.98172 0.25028
 H213 H -0.14392 1.01809 0.29665
 H214 H -0.12402 0.97466 0.24667
 H215 H -0.14561 1.03554 0.23254
 H216 H -0.18573 0.99584 0.25750
 C217 C 0.34157 0.51728 -0.23804
 C218 C 0.35664 0.51235 -0.21958
 C219 C 0.36946 0.49698 -0.22491
 C220 C 0.36618 0.48801 -0.24815
 C221 C 0.35472 0.52172 -0.25842
 C222 C 0.36755 0.50645 -0.26369
 C223 C 0.33057 0.49711 -0.24312
 C224 C 0.34354 0.48181 -0.24837
 H225 H 0.35665 0.51976 -0.20350
 H226 H 0.37672 0.47557 -0.25251
 H227 H 0.35366 0.53556 -0.26813
 H228 H 0.31423 0.49484 -0.24151
 C229 C 0.65353 0.02433 -0.24716
 C230 C 0.63877 0.01790 -0.26560
 C231 C 0.62660 0.00172 -0.25997
 C232 C 0.63016 -0.00644 -0.23651
 C233 C 0.64014 0.02825 -0.22695
 C234 C 0.62793 0.01221 -0.22141
 C235 C 0.66532 0.00506 -0.24165
 C236 C 0.65302 -0.01107 -0.23617
 H237 H 0.63891 0.02458 -0.28204
 H238 H 0.62015 -0.01951 -0.23185
 H239 H 0.64023 0.04252 -0.21785
 H240 H 0.68162 0.00369 -0.24415
 C241 C 0.02627 0.24499 0.85766
 C242 C 0.02757 0.26295 0.87392
 C243 C 0.01089 0.26443 0.88734
 C244 C -0.00551 0.24783 0.88325
 C245 C 0.02270 0.22625 0.87233
 C246 C 0.00606 0.22773 0.88577
 C247 C 0.00741 0.24765 0.84562
 C248 C -0.01002 0.24922 0.85967
 H249 H 0.04029 0.27366 0.87450
 H250 H -0.01907 0.24901 0.89419
 H251 H 0.03253 0.21311 0.87226
 H252 H 0.00655 0.24858 0.82768
 C253 C 0.51829 0.26095 0.13973
 C254 C 0.51880 0.24266 0.12405
 C255 C 0.50255 0.24145 0.11013
 C256 C 0.48718 0.25868 0.11307
 C257 C 0.51631 0.27948 0.12463
 C258 C 0.50006 0.27831 0.11070
 C259 C 0.49780 0.25910 0.15180
 C260 C 0.48153 0.25790 0.13782
 H261 H 0.53067 0.23134 0.12435
 H262 H 0.47394 0.25773 0.10169
 H263 H 0.52682 0.29238 0.12493
 H264 H 0.49630 0.25867 0.16970
 C265 C 0.01786 0.76015 0.63966
 C266 C 0.01843 0.74177 0.62410
 C267 C 0.00225 0.74051 0.61008
 C268 C -0.01312 0.75776 0.61282
 C269 C 0.01597 0.77859 0.62442
 C270 C -0.00021 0.77736 0.61040
 C271 C -0.00270 0.75838 0.65162
 C272 C -0.01890 0.75711 0.63755
 H273 H 0.03031 0.73046 0.62453
 H274 H -0.02630 0.75677 0.60137
 H275 H 0.02652 0.79147 0.62467
 H276 H -0.00429 0.75805 0.66951
 C277 C 0.52736 0.74429 0.35854
 C278 C 0.52855 0.76223 0.37474
 C279 C 0.51192 0.76366 0.38818
 C280 C 0.49558 0.74703 0.38426
 C281 C 0.52374 0.72553 0.37308
 C282 C 0.50714 0.72695 0.38653
 C283 C 0.50740 0.74710 0.34592
 C284 C 0.49079 0.74855 0.35937
 H285 H 0.54121 0.77303 0.37527
 H286 H 0.48204 0.74817 0.39521
 H287 H 0.53355 0.71239 0.37293
 H288 H 0.50651 0.74806 0.32800
 B289 B -0.01283 0.01210 1.02349
 B290 B -0.02304 0.00690 0.99890
 B291 B -0.00485 0.02470 1.00112
 B292 B 0.01215 0.01738 1.02028
 B293 B 0.00397 -0.00587 1.02978
 B294 B -0.01819 -0.01219 1.01651
 B295 B 0.01186 -0.00926 0.98566
 B296 B 0.02211 -0.00406 1.01023
 B297 B 0.00388 -0.02182 1.00798
 B298 B -0.01309 -0.01450 0.98887
 B299 B -0.00490 0.00871 0.97933
 B300 B 0.01728 0.01503 0.99260
 B301 B 0.48813 0.51123 0.52409
 B302 B 0.47794 0.50615 0.49946
 B303 B 0.49627 0.52380 0.50177
 B304 B 0.51315 0.51631 0.52097
 B305 B 0.50475 0.49311 0.53040
 B306 B 0.48258 0.48699 0.51705
 B307 B 0.51273 0.48972 0.48629
 B308 B 0.52296 0.49480 0.51091
 B309 B 0.50460 0.47720 0.50857
 B310 B 0.48773 0.48468 0.48942
 B311 B 0.49613 0.50784 0.47995
 B312 B 0.51833 0.51396 0.49329
 B313 B 0.50846 0.97330 0.54001
 B314 B 0.52110 0.97866 0.51677
 B315 B 0.50110 0.96280 0.51617
 B316 B 0.48346 0.97089 0.53436
 B317 B 0.49314 0.99265 0.54621
 B318 B 0.51681 0.99724 0.53527
 B319 B 0.48929 0.99915 0.50188
 B320 B 0.47661 0.99380 0.52508
 B321 B 0.49663 1.00964 0.52568
 B322 B 0.51425 1.00155 0.50752
 B323 B 0.50456 0.97984 0.49566
 B324 B 0.48091 0.97522 0.50657
 B325 B 0.00861 0.47393 1.03952
 B326 B 0.02125 0.47930 1.01628
 B327 B 0.00123 0.46348 1.01566
 B328 B -0.01640 0.47157 1.03387
 B329 B -0.00668 0.49329 1.04576
 B330 B 0.01699 0.49787 1.03483
 B331 B -0.01053 0.49988 1.00145
 B332 B -0.02321 0.49451 1.02464
 B333 B -0.00317 0.51031 1.02526
 B334 B 0.01443 0.50222 1.00708
 B335 B 0.00471 0.48055 0.99518
 B336 B -0.01894 0.47595 1.00609
 B337 B -0.00091 0.51718 0.48566
 B338 B 0.01189 0.51441 0.50918
 B339 B -0.00745 0.53044 0.50799
 B340 B -0.02570 0.52055 0.49146
 B341 B -0.01710 0.49751 0.48250
 B342 B 0.00654 0.49391 0.49348
 B343 B -0.02049 0.49619 0.52747
 B344 B -0.03331 0.49900 0.50397
 B345 B -0.01396 0.48296 0.50511
 B346 B 0.00429 0.49285 0.52166
 B347 B -0.00432 0.51590 0.53064
 B348 B -0.02795 0.51950 0.51967
 B349 B 0.50015 0.01816 -0.01431
 B350 B 0.51278 0.01545 0.00934
 B351 B 0.49335 0.03137 0.00796
 B352 B 0.47530 0.02138 -0.00877
 B353 B 0.48412 -0.00160 -0.01765
 B354 B 0.50768 -0.00507 -0.00643
 B355 B 0.48034 -0.00297 0.02728
 B356 B 0.46771 -0.00022 0.00365
 B357 B 0.48715 -0.01614 0.00498
 B358 B 0.50519 -0.00616 0.02173
 B359 B 0.49637 0.01683 0.03063
 B360 B 0.47280 0.02030 0.01942
 B361 B 0.49793 0.49428 -0.02602
 B362 B 0.48574 0.49991 -0.00266
 B363 B 0.50423 0.48288 -0.00250
 B364 B 0.52262 0.49025 -0.02040
 B365 B 0.51496 0.51276 -0.03165
 B366 B 0.49174 0.51853 -0.02064
 B367 B 0.51927 0.51809 0.01289
 B368 B 0.53150 0.51249 -0.01046
 B369 B 0.51295 0.52951 -0.01066
 B370 B 0.49460 0.52210 0.00726
 B371 B 0.50226 0.49960 0.01849
 B372 B 0.52546 0.49380 0.00749
 B373 B -0.00204 0.99282 0.47260
 B374 B -0.01408 0.99829 0.49610
 B375 B 0.00455 0.98141 0.49601
 B376 B 0.02274 0.98898 0.47796
 B377 B 0.01480 1.01146 0.46687
 B378 B -0.00838 1.01701 0.47813
 B379 B 0.01944 1.01667 0.51139
 B380 B 0.03151 1.01126 0.48790
 B381 B 0.01283 1.02812 0.48795
 B382 B -0.00531 1.02052 0.50601
 B383 B 0.00262 0.99805 0.51708
 B384 B 0.02577 0.99246 0.50583
 B385 B 0.76382 0.23844 0.22533
 B386 B 0.75863 0.22824 0.24994
 B387 B 0.77639 0.24648 0.24768
 B388 B 0.76901 0.26343 0.22849
 B389 B 0.74578 0.25516 0.21900
 B390 B 0.73952 0.23301 0.23232
 B391 B 0.74232 0.26306 0.26312
 B392 B 0.74751 0.27330 0.23853
 B393 B 0.72980 0.25503 0.24081
 B394 B 0.73717 0.23811 0.25995
 B395 B 0.76036 0.24638 0.26947
 B396 B 0.76662 0.26856 0.25617
 B397 B 0.72484 0.75963 0.71113
 B398 B 0.73027 0.77193 0.73453
 B399 B 0.71452 0.75186 0.73491
 B400 B 0.72260 0.73455 0.71636
 B401 B 0.74425 0.74452 0.70451
 B402 B 0.74879 0.76802 0.71580
 B403 B 0.75105 0.74003 0.74870
 B404 B 0.74563 0.72769 0.72533
 B405 B 0.76137 0.74779 0.72495
 B406 B 0.75328 0.76507 0.74347
 B407 B 0.73167 0.75509 0.75534
 B408 B 0.72711 0.73160 0.74407
 B409 B 0.26701 0.24853 0.76487
 B410 B 0.26457 0.26154 0.74143
 B411 B 0.28029 0.24194 0.74255
 B412 B 0.27001 0.22375 0.75891
 B413 B 0.24706 0.23268 0.76781
 B414 B 0.24390 0.25642 0.75698
 B415 B 0.24592 0.22961 0.72281
 B416 B 0.24839 0.21660 0.74624
 B417 B 0.23267 0.23621 0.74515
 B418 B 0.24295 0.25439 0.72878
 B419 B 0.26591 0.24547 0.71986
 B420 B 0.26907 0.22171 0.73068
 B421 B 0.24251 0.74796 0.27610
 B422 B 0.24815 0.73586 0.25270
 B423 B 0.23108 0.75430 0.25262
 B424 B 0.23843 0.77264 0.27055
 B425 B 0.26098 0.76499 0.28175
 B426 B 0.26679 0.74183 0.27066
 B427 B 0.26626 0.76944 0.23721
 B428 B 0.26066 0.78157 0.26059
 B429 B 0.27772 0.76308 0.26071
 B430 B 0.27034 0.74478 0.24276
 B431 B 0.24780 0.75243 0.23160
 B432 B 0.24195 0.77555 0.24266
 B433 B 0.26272 0.73840 0.72585
 B434 B 0.25758 0.72830 0.75052
 B435 B 0.27546 0.74639 0.74810
 B436 B 0.26812 0.76335 0.72890
 B437 B 0.24478 0.75524 0.71958
 B438 B 0.23842 0.73317 0.73301
 B439 B 0.24162 0.76328 0.76370
 B440 B 0.24675 0.77342 0.73904
 B441 B 0.22891 0.75529 0.74148
 B442 B 0.23625 0.73837 0.76063
 B443 B 0.25955 0.74648 0.76998
 B444 B 0.26592 0.76857 0.75658
 B445 B 0.22528 0.25962 0.21021
 B446 B 0.23072 0.27211 0.23351
 B447 B 0.21479 0.25219 0.23405
 B448 B 0.22279 0.23462 0.21575
 B449 B 0.24458 0.24427 0.20388
 B450 B 0.24927 0.26786 0.21492
 B451 B 0.25115 0.24019 0.24816
 B452 B 0.24572 0.22765 0.22492
 B453 B 0.26164 0.24761 0.22437
 B454 B 0.25362 0.26514 0.24264
 B455 B 0.23188 0.25548 0.25452
 B456 B 0.22717 0.23192 0.24351
 B457 B 0.76800 0.74999 0.26527
 B458 B 0.76530 0.76265 0.24164
 B459 B 0.78128 0.74327 0.24300
 B460 B 0.77130 0.72518 0.25969
 B461 B 0.74827 0.73392 0.26856
 B462 B 0.74475 0.75747 0.25738
 B463 B 0.74699 0.73022 0.22362
 B464 B 0.74973 0.71757 0.24725
 B465 B 0.73375 0.73695 0.24592
 B466 B 0.74372 0.75503 0.22921
 B467 B 0.76676 0.74630 0.22032
 B468 B 0.77028 0.72273 0.23150
 B469 B 0.74260 0.24779 0.77665
 B470 B 0.74809 0.23590 0.75308
 B471 B 0.73116 0.25448 0.75330
 B472 B 0.73870 0.27256 0.77144
 B473 B 0.76122 0.26461 0.78245
 B474 B 0.76682 0.24153 0.77106
 B475 B 0.76642 0.26951 0.73796
 B476 B 0.76097 0.28143 0.76152
 B477 B 0.77789 0.26280 0.76134
 B478 B 0.77032 0.24476 0.74319
 B479 B 0.74781 0.25270 0.73219
 B480 B 0.74218 0.27576 0.74357
 C481 C 0.39102 1.02272 0.30782
 C482 C 0.40053 1.02618 0.32444
 C483 C 0.41165 1.02966 0.34456
 C484 C 0.40248 1.03967 0.36235
 C485 C 0.41262 1.04139 0.38259
 C486 C 0.43205 1.03309 0.38526
 C487 C 0.44137 1.02361 0.36705
 C488 C 0.43121 1.02191 0.34685
 C489 C 0.44194 1.03272 0.40730
 C490 C 0.46315 1.03527 0.40925
 C491 C 0.47277 1.03189 0.42948
 C492 C 0.46130 1.02606 0.44800
 C493 C 0.44010 1.02454 0.44652
 C494 C 0.43046 1.02789 0.42631
 C495 C 0.47133 1.01879 0.46744
 C496 C 0.47950 1.01113 0.48308
 H497 H 0.38732 1.04571 0.36072
 H498 H 0.40515 1.04892 0.39625
 H499 H 0.45615 1.01674 0.36867
 H500 H 0.43838 1.01402 0.33322
 H501 H 0.47236 1.03923 0.39497
 H502 H 0.48920 1.03294 0.43043
 H503 H 0.43112 1.01977 0.46070
 H504 H 0.41415 1.02555 0.42530
 C505 C -0.10902 0.52431 0.80794
 C506 C -0.09942 0.52797 0.82446
 C507 C -0.08819 0.53158 0.84448
 C508 C -0.09729 0.54158 0.86230
 C509 C -0.08710 0.54326 0.88252
 C510 C -0.06768 0.53491 0.88512
 C511 C -0.05841 0.52548 0.86685
 C512 C -0.06862 0.52383 0.84668
 C513 C -0.05778 0.53437 0.90715
 C514 C -0.03656 0.53678 0.90911
 C515 C -0.02695 0.53314 0.92929
 C516 C -0.03844 0.52721 0.94775
 C517 C -0.05964 0.52584 0.94628
 C518 C -0.06928 0.52944 0.92612
 C519 C -0.02843 0.51973 0.96711
 C520 C -0.02029 0.51195 0.98269
 H521 H -0.11247 0.54762 0.86075
 H522 H -0.09454 0.55076 0.89622
 H523 H -0.04364 0.51858 0.86840
 H524 H -0.06150 0.51594 0.83302
 H525 H -0.02734 0.54081 0.89486
 H526 H -0.01051 0.53409 0.93022
 H527 H -0.06864 0.52101 0.96043
 H528 H -0.08560 0.52721 0.92511
 C529 C 0.10573 -0.02066 0.78653
 C530 C 0.09684 -0.02473 0.80343
 C531 C 0.08695 -0.02917 0.82410
 C532 C 0.09773 -0.03864 0.84106
 C533 C 0.08881 -0.04134 0.86187
 C534 C 0.06896 -0.03457 0.86595
 C535 C 0.05803 -0.02562 0.84858
 C536 C 0.06700 -0.02292 0.82780
 C537 C 0.06018 -0.03535 0.88854
 C538 C 0.03943 -0.03998 0.89172
 C539 C 0.03056 -0.03789 0.91261
 C540 C 0.04233 -0.03126 0.93055
 C541 C 0.06319 -0.02758 0.92780
 C542 C 0.07210 -0.02968 0.90692
 C543 C 0.03249 -0.02545 0.95075
 C544 C 0.02374 -0.01919 0.96681
 H545 H 0.11321 -0.04351 0.83833
 H546 H 0.09750 -0.04843 0.87487
 H547 H 0.04286 -0.01995 0.85132
 H548 H 0.05858 -0.01545 0.81483
 H549 H 0.02995 -0.04460 0.87792
 H550 H 0.01436 -0.04060 0.91455
 H551 H 0.07236 -0.02217 0.94153
 H552 H 0.08805 -0.02577 0.90494
 C553 C 0.60711 0.48017 0.28768
 C554 C 0.59796 0.47587 0.30434
 C555 C 0.58794 0.47107 0.32485
 C556 C 0.56792 0.47711 0.32852
 C557 C 0.55887 0.47409 0.34922
 C558 C 0.56981 0.46505 0.36652
 C559 C 0.58972 0.45847 0.36244
 C560 C 0.59871 0.46148 0.34172
 C561 C 0.56102 0.46408 0.38910
 C562 C 0.57291 0.46973 0.40751
 C563 C 0.56399 0.47165 0.42839
 C564 C 0.54317 0.46782 0.43114
 C565 C 0.53143 0.46120 0.41317
 C566 C 0.54030 0.45930 0.39226
 C567 C 0.53331 0.47352 0.45137
 C568 C 0.52458 0.47975 0.46745
 H569 H 0.55951 0.48467 0.31560
 H570 H 0.54364 0.47962 0.35196
 H571 H 0.59842 0.45131 0.37539
 H572 H 0.61425 0.45677 0.33902
 H573 H 0.58883 0.47377 0.40555
 H574 H 0.57314 0.47707 0.44215
 H575 H 0.51524 0.45839 0.41510
 H576 H 0.53084 0.45470 0.37843
 C577 C 0.61104 0.50420 0.20958
 C578 C 0.60445 0.51067 0.19243
 C579 C 0.59659 0.51810 0.17183
 C580 C 0.58127 0.53264 0.17169
 C581 C 0.57284 0.53891 0.15164
 C582 C 0.57964 0.53068 0.13148
 C583 C 0.59543 0.51647 0.13180
 C584 C 0.60383 0.51024 0.15184
 C585 C 0.56926 0.53545 0.11035
 C586 C 0.58037 0.53715 0.09048
 C587 C 0.57029 0.53824 0.07018
 C588 C 0.54902 0.53782 0.06950
 C589 C 0.53787 0.53740 0.08925
 C590 C 0.54790 0.53628 0.10955
 C591 C 0.53874 0.53397 0.04894
 C592 C 0.53007 0.52851 0.03240
 H593 H 0.57561 0.53887 0.18708
 H594 H 0.56083 0.54999 0.15192
 H595 H 0.60077 0.50956 0.11664
 H596 H 0.61565 0.49894 0.15177
 H597 H 0.59684 0.53683 0.09058
 H598 H 0.57907 0.53834 0.05499
 H599 H 0.52140 0.53670 0.08890
 H600 H 0.53889 0.53474 0.12448
 C601 C 0.10884 1.00131 0.70926
 C602 C 0.10154 1.00789 0.69252
 C603 C 0.09279 1.01550 0.67243
 C604 C 0.10495 1.02596 0.65704
 C605 C 0.09664 1.03234 0.63696
 C606 C 0.07606 1.02831 0.63206
 C607 C 0.06389 1.01818 0.64789
 C608 C 0.07222 1.01183 0.66792
 C609 C 0.06759 1.03313 0.60995
 C610 C 0.04740 1.03967 0.60779
 C611 C 0.03839 1.04095 0.58692
 C612 C 0.04949 1.03591 0.56796
 C613 C 0.06995 1.03063 0.56985
 C614 C 0.07898 1.02929 0.59069
 C615 C 0.03908 1.03234 0.54742
 C616 C 0.03032 1.02704 0.53088
 H617 H 0.12090 1.02891 0.66041
 H618 H 0.10635 1.04022 0.62519
 H619 H 0.04810 1.01449 0.64448
 H620 H 0.06270 1.00369 0.67970
 H621 H 0.03834 1.04300 0.62230
 H622 H 0.02247 1.04481 0.58568
 H623 H 0.07856 1.02633 0.55531
 H624 H 0.09445 1.02398 0.59177
 C625 C -0.11045 0.50297 0.72905
 C626 C -0.10285 0.49769 0.71186
 C627 C -0.09359 0.49173 0.69132
 C628 C -0.10482 0.48084 0.67549
 C629 C -0.09604 0.47602 0.65508
 C630 C -0.07588 0.48204 0.65026
 C631 C -0.06461 0.49263 0.66649
 C632 C -0.07342 0.49742 0.68686
 C633 C -0.06699 0.47865 0.62797
 C634 C -0.04631 0.47385 0.62555
 C635 C -0.03726 0.47359 0.60460
 C636 C -0.04879 0.47796 0.58582
 C637 C -0.06960 0.48165 0.58794
 C638 C -0.07868 0.48195 0.60887
 C639 C -0.03880 0.48179 0.56504
 C640 C -0.03054 0.48687 0.54809
 H641 H -0.12045 0.47633 0.67881
 H642 H -0.10504 0.46773 0.64300
 H643 H -0.04921 0.49783 0.66318
 H644 H -0.06461 0.50593 0.69896
 H645 H -0.03699 0.47095 0.63992
 H646 H -0.02109 0.47090 0.60317
 H647 H -0.07860 0.48533 0.57352
 H648 H -0.09456 0.48593 0.61016
 C649 C 0.38987 0.00188 0.22876
 C650 C 0.39752 -0.00331 0.21156
 C651 C 0.40682 -0.00912 0.19098
 C652 C 0.42709 -0.00366 0.18674
 C653 C 0.43591 -0.00823 0.16632
 C654 C 0.42456 -0.01834 0.14982
 C655 C 0.40430 -0.02417 0.15442
 C656 C 0.39550 -0.01957 0.17488
 C657 C 0.43347 -0.02141 0.12748
 C658 C 0.42188 -0.01755 0.10843
 C659 C 0.43100 -0.01758 0.08752
 C660 C 0.45176 -0.02155 0.08536
 C661 C 0.46317 -0.02645 0.10406
 C662 C 0.45408 -0.02646 0.12500
 C663 C 0.46183 -0.01755 0.06467
 C664 C 0.47018 -0.01237 0.04780
 H665 H 0.43596 0.00451 0.19906
 H666 H 0.45140 -0.00320 0.16319
 H667 H 0.39523 -0.03210 0.14212
 H668 H 0.37979 -0.02389 0.17802
 H669 H 0.40606 -0.01337 0.10978
 H670 H 0.42209 -0.01349 0.07318
 H671 H 0.47929 -0.02937 0.10260
 H672 H 0.46331 -0.02979 0.13931
 C673 C 0.29186 0.41758 0.00076
 C674 C 0.30689 0.42779 0.00412
 C675 C 0.32550 0.43915 0.00707
 C676 C 0.33144 0.45359 -0.00873
 C677 C 0.35067 0.46283 -0.00755
 C678 C 0.36424 0.45767 0.00944
 C679 C 0.35785 0.44364 0.02568
 C680 C 0.33861 0.43441 0.02446
 C681 C 0.38535 0.46591 0.00935
 C682 C 0.40177 0.45313 0.01400
 C683 C 0.42176 0.46043 0.01241
 C684 C 0.42561 0.48059 0.00620
 C685 C 0.40941 0.49355 0.00192
 C686 C 0.38938 0.48627 0.00350
 C687 C 0.44619 0.48770 0.00346
 C688 C 0.46353 0.49331 0.00090
 H689 H 0.32149 0.45719 -0.02240
 H690 H 0.35524 0.47335 -0.02046
 H691 H 0.36788 0.43956 0.03909
 H692 H 0.33418 0.42317 0.03670
 H693 H 0.39918 0.43730 0.01819
 H694 H 0.43423 0.45027 0.01564
 H695 H 0.41227 0.50919 -0.00289
 H696 H 0.37706 0.49651 0.00003
 C697 C -0.20844 0.91753 0.50254
 C698 C -0.19341 0.92772 0.50593
 C699 C -0.17473 0.93899 0.50879
 C700 C -0.16117 0.93358 0.52551
 C701 C -0.14179 0.94255 0.52636
 C702 C -0.13574 0.95700 0.51042
 C703 C -0.14976 0.96287 0.49417
 C704 C -0.16912 0.95388 0.49335
 C705 C -0.11451 0.96491 0.50978
 C706 C -0.11035 0.98539 0.50459
 C707 C -0.09027 0.99243 0.50256
 C708 C -0.07416 0.97909 0.50571
 C709 C -0.07813 0.95879 0.51121
 C710 C -0.09817 0.95172 0.51325
 C711 C -0.05356 0.98604 0.50266
 C712 C -0.03623 0.99160 0.49988
 H713 H -0.16534 0.92196 0.53745
 H714 H -0.13141 0.93792 0.53922
 H715 H -0.14546 0.97374 0.48150
 H716 H -0.17943 0.95799 0.48019
 H717 H -0.12261 0.99593 0.50202
 H718 H -0.08732 1.00819 0.49831
 H719 H -0.06573 0.94834 0.51357
 H720 H -0.10088 0.93580 0.51689
 C721 C -0.21703 0.07783 0.98266
 C722 C -0.20236 0.06757 0.97922
 C723 C -0.18390 0.05649 0.97646
 C724 C -0.17856 0.04196 0.99219
 C725 C -0.15911 0.03372 0.99194
 C726 C -0.14475 0.04004 0.97599
 C727 C -0.15060 0.05393 0.95960
 C728 C -0.17006 0.06215 0.95989
 C729 C -0.12335 0.03349 0.97766
 C730 C -0.10736 0.04769 0.97473
 C731 C -0.08723 0.04208 0.97821
 C732 C -0.08284 0.02222 0.98462
 C733 C -0.09856 0.00785 0.98711
 C734 C -0.11872 0.01343 0.98365
 C735 C -0.06225 0.01682 0.98935
 C736 C -0.04500 0.01243 0.99351
 H737 H -0.18909 0.03770 1.00526
 H738 H -0.15499 0.02326 1.00493
 H739 H -0.13993 0.05886 0.94696
 H740 H -0.17402 0.07353 0.94776
 H741 H -0.11045 0.06333 0.97052
 H742 H -0.07513 0.05332 0.97633
 H743 H -0.09527 -0.00758 0.99204
 H744 H -0.13071 0.00214 0.98584
 C745 C 0.28419 0.57864 0.48277
 C746 C 0.29900 0.56855 0.47952
 C747 C 0.31757 0.55759 0.47697
 C748 C 0.33163 0.56346 0.46070
 C749 C 0.35106 0.55517 0.46052
 C750 C 0.35667 0.54099 0.47671
 C751 C 0.34212 0.53453 0.49240
 C752 C 0.32270 0.54284 0.49254
 C753 C 0.37799 0.53418 0.47842
 C754 C 0.38236 0.51397 0.48402
 C755 C 0.40244 0.50809 0.48743
 C756 C 0.41834 0.52231 0.48526
 C757 C 0.41420 0.54233 0.47925
 C758 C 0.39415 0.54825 0.47583
 C759 C 0.43885 0.51658 0.48992
 C760 C 0.45604 0.51193 0.49405
 H761 H 0.32784 0.57501 0.44869
 H762 H 0.36188 0.56023 0.44808
 H763 H 0.34606 0.52385 0.50525
 H764 H 0.31200 0.53841 0.50539
 H765 H 0.37024 0.50279 0.48594
 H766 H 0.40553 0.49254 0.49206
 H767 H 0.42643 0.55346 0.47763
 H768 H 0.39126 0.56399 0.47191
 C769 C 0.21139 0.58672 0.50286
 C770 C 0.19418 0.58071 0.50558
 C771 C 0.17363 0.57337 0.50830
 C772 C 0.16982 0.55266 0.51185
 C773 C 0.14982 0.54531 0.51339
 C774 C 0.13338 0.55860 0.51136
 C775 C 0.13737 0.57946 0.50814
 C776 C 0.15739 0.58677 0.50659
 C777 C 0.11215 0.55066 0.51198
 C778 C 0.09686 0.56136 0.52317
 C779 C 0.07680 0.55400 0.52330
 C780 C 0.07181 0.53590 0.51226
 C781 C 0.08691 0.52515 0.50113
 C782 C 0.10696 0.53246 0.50099
 C783 C 0.05116 0.52853 0.51189
 C784 C 0.03388 0.52229 0.51109
 H785 H 0.18230 0.54216 0.51322
 H786 H 0.14722 0.52922 0.51618
 H787 H 0.12503 0.59002 0.50625
 H788 H 0.16019 0.60283 0.50372
 H789 H 0.10044 0.57531 0.53194
 H790 H 0.06518 0.56245 0.53193
 H791 H 0.08315 0.51120 0.49240
 H792 H 0.11832 0.52406 0.49194
 C793 C 0.71199 0.08836 0.00336
 C794 C 0.69470 0.08256 0.00599
 C795 C 0.67407 0.07546 0.00868
 C796 C 0.65796 0.08753 0.00172
 C797 C 0.63794 0.08027 0.00339
 C798 C 0.63380 0.06079 0.01202
 C799 C 0.65009 0.04889 0.01926
 C800 C 0.67010 0.05620 0.01758
 C801 C 0.61264 0.05268 0.01286
 C802 C 0.60841 0.03237 0.00694
 C803 C 0.58844 0.02485 0.00709
 C804 C 0.57246 0.03749 0.01319
 C805 C 0.57649 0.05767 0.01926
 C806 C 0.59647 0.06524 0.01911
 C807 C 0.55190 0.02988 0.01253
 C808 C 0.53469 0.02348 0.01151
 H809 H 0.66090 0.10244 -0.00530
 H810 H 0.62575 0.08967 -0.00257
 H811 H 0.64736 0.03395 0.02625
 H812 H 0.68247 0.04675 0.02304
 H813 H 0.62050 0.02243 0.00173
 H814 H 0.58544 0.00924 0.00222
 H815 H 0.56419 0.06758 0.02398
 H816 H 0.59928 0.08088 0.02397
 C817 C 0.71807 0.90948 0.48617
 C818 C 0.70070 0.91498 0.48702
 C819 C 0.67998 0.92138 0.48907
 C820 C 0.67313 0.93819 0.47722
 C821 C 0.65324 0.94493 0.48016
 C822 C 0.63999 0.93495 0.49506
 C823 C 0.64697 0.91792 0.50668
 C824 C 0.66683 0.91121 0.50369
 C825 C 0.61910 0.94247 0.49878
 C826 C 0.61087 0.94312 0.52029
 C827 C 0.59127 0.95038 0.52385
 C828 C 0.57966 0.95706 0.50600
 C829 C 0.58766 0.95643 0.48454
 C830 C 0.60727 0.94919 0.48093
 C831 C 0.55955 0.96460 0.50972
 C832 C 0.54268 0.97087 0.51284
 H833 H 0.68324 0.94625 0.46596
 H834 H 0.64837 0.95822 0.47118
 H835 H 0.63704 0.90977 0.51802
 H836 H 0.67201 0.89819 0.51296
 H837 H 0.61970 0.93831 0.53439
 H838 H 0.58521 0.95085 0.54053
 H839 H 0.57874 0.96151 0.47060
 H840 H 0.61310 0.94864 0.46418
 C841 C 0.21815 0.40994 0.98525
 C842 C 0.20081 0.41553 0.98620
 C843 C 0.18013 0.42203 0.98833
 C844 C 0.17343 0.43913 0.97687
 C845 C 0.15355 0.44591 0.97986
 C846 C 0.14017 0.43569 0.99442
 C847 C 0.14700 0.41839 1.00566
 C848 C 0.16685 0.41163 1.00263
 C849 C 0.11928 0.44322 0.99817
 C850 C 0.11089 0.44342 1.01962
 C851 C 0.09128 0.45064 1.02321
 C852 C 0.07982 0.45774 1.00544
 C853 C 0.08798 0.45757 0.98404
 C854 C 0.10760 0.45037 0.98041
 C855 C 0.05970 0.46524 1.00918
 C856 C 0.04283 0.47150 1.01233
 H857 H 0.18363 0.44736 0.96587
 H858 H 0.14880 0.45941 0.97118
 H859 H 0.13697 0.41004 1.01673
 H860 H 0.17190 0.39838 1.01159
 H861 H 0.11960 0.43827 1.03367
 H862 H 0.08509 0.45075 1.03984
 H863 H 0.07918 0.46298 0.97016
 H864 H 0.11356 0.45018 0.96369
 C865 C -0.00690 0.29570 0.40513
 C866 C -0.00844 0.31038 0.41702
 C867 C -0.01033 0.32806 0.43097
 C868 C 0.00673 0.34032 0.43548
 C869 C 0.00482 0.35790 0.44832
 C870 C -0.01424 0.36350 0.45688
 C871 C -0.03128 0.35093 0.45249
 C872 C -0.02931 0.33334 0.43963
 C873 C -0.01640 0.38284 0.46946
 C874 C -0.03315 0.39548 0.46578
 C875 C -0.03420 0.41455 0.47598
 C876 C -0.01861 0.42123 0.49008
 C877 C -0.00226 0.40848 0.49448
 C878 C -0.00118 0.38940 0.48430
 C879 C -0.01807 0.44202 0.49765
 C880 C -0.01685 0.45983 0.50231
 H881 H 0.02149 0.33646 0.42880
 H882 H 0.01817 0.36739 0.45105
 H883 H -0.04611 0.35468 0.45899
 H884 H -0.04264 0.32395 0.43629
 H885 H -0.04499 0.39104 0.45426
 H886 H -0.04678 0.42440 0.47218
 H887 H 0.00999 0.41354 0.50520
 H888 H 0.01177 0.37994 0.48774
 C889 C 0.49302 -0.20436 -0.09353
 C890 C 0.49117 -0.18944 -0.08208
 C891 C 0.48879 -0.17142 -0.06874
 C892 C 0.47766 -0.15510 -0.07689
 C893 C 0.47568 -0.13737 -0.06431
 C894 C 0.48483 -0.13568 -0.04333
 C895 C 0.49580 -0.15228 -0.03516
 C896 C 0.49775 -0.17002 -0.04779
 C897 C 0.48365 -0.11635 -0.03057
 C898 C 0.50084 -0.10858 -0.01937
 C899 C 0.50035 -0.08949 -0.00917
 C900 C 0.48267 -0.07792 -0.00987
 C901 C 0.46527 -0.08581 -0.02029
 C902 C 0.46572 -0.10490 -0.03052
 C903 C 0.48322 -0.05710 -0.00242
 C904 C 0.48439 -0.03928 0.00218
 H905 H 0.47070 -0.15597 -0.09310
 H906 H 0.46743 -0.12479 -0.07127
 H907 H 0.50285 -0.15156 -0.01900
 H908 H 0.50636 -0.18257 -0.04126
 H909 H 0.51496 -0.11684 -0.01934
 H910 H 0.51401 -0.08343 -0.00146
 H911 H 0.45154 -0.07692 -0.02113
 H912 H 0.45214 -0.11054 -0.03872
 C913 C 0.01112 -0.21534 1.09421
 C914 C 0.01198 -0.20028 1.08285
 C915 C 0.01277 -0.18179 1.07011
 C916 C 0.03149 -0.17234 1.06534
 C917 C 0.03213 -0.15354 1.05453
 C918 C 0.01403 -0.14392 1.04836
 C919 C -0.00469 -0.15378 1.05281
 C920 C -0.00529 -0.17255 1.06362
 C921 C 0.01451 -0.12324 1.03841
 C922 C 0.00063 -0.11798 1.02174
 C923 C -0.00012 -0.09804 1.01383
 C924 C 0.01304 -0.08309 1.02239
 C925 C 0.02733 -0.08829 1.03846
 C926 C 0.02810 -0.10822 1.04640
 C927 C 0.01069 -0.06214 1.01615
 C928 C 0.00810 -0.04447 1.01186
 H929 H 0.04557 -0.17932 1.07034
 H930 H 0.04678 -0.14647 1.05113
 H931 H -0.01891 -0.14666 1.04863
 H932 H -0.01988 -0.17963 1.06738
 H933 H -0.00985 -0.12924 1.01503
 H934 H -0.01129 -0.09417 1.00144
 H935 H 0.03746 -0.07680 1.04536
 H936 H 0.03878 -0.11167 1.05943
 C937 C 0.51094 0.28377 0.59516
 C938 C 0.51182 0.29882 0.58378
 C939 C 0.51264 0.31728 0.57099
 C940 C 0.53140 0.32651 0.56589
 C941 C 0.53210 0.34528 0.55501
 C942 C 0.51403 0.35509 0.54912
 C943 C 0.49527 0.34546 0.55391
 C944 C 0.49460 0.32672 0.56478
 C945 C 0.51460 0.37574 0.53909
 C946 C 0.50054 0.38110 0.52264
 C947 C 0.49990 0.40104 0.51469
 C948 C 0.51333 0.41587 0.52299
 C949 C 0.52780 0.41055 0.53883
 C950 C 0.52846 0.39063 0.54681
 C951 C 0.51111 0.43683 0.51673
 C952 C 0.50864 0.45451 0.51244
 H953 H 0.54547 0.31938 0.57067
 H954 H 0.54678 0.35217 0.55135
 H955 H 0.48107 0.35272 0.54994
 H956 H 0.48000 0.31981 0.56880
 H957 H 0.48985 0.36995 0.51614
 H958 H 0.48859 0.40500 0.50249
 H959 H 0.53814 0.42195 0.54553
 H960 H 0.53929 0.38710 0.55966
 C961 C 0.50479 1.20867 0.60412
 C962 C 0.50314 1.19155 0.59703
 C963 C 0.50129 1.17123 0.58815
 C964 C 0.48227 1.16342 0.58172
 C965 C 0.48058 1.14388 0.57264
 C966 C 0.49793 1.13185 0.56981
 C967 C 0.51697 1.13983 0.57640
 C968 C 0.51862 1.15936 0.58548
 C969 C 0.49624 1.11105 0.56014
 C970 C 0.51118 1.10395 0.54543
 C971 C 0.51010 1.08413 0.53708
 C972 C 0.49406 1.07109 0.54323
 C973 C 0.47890 1.07810 0.55752
 C974 C 0.47995 1.09795 0.56589
 C975 C 0.49399 1.05016 0.53611
 C976 C 0.49465 1.03246 0.53089
 H977 H 0.46876 1.17250 0.58357
 H978 H 0.46575 1.13830 0.56752
 H979 H 0.53058 1.13089 0.57478
 H980 H 0.53343 1.16521 0.59040
 H981 H 0.52375 1.11372 0.54040
 H982 H 0.52196 1.07887 0.52609
 H983 H 0.46651 1.06809 0.56257
 H984 H 0.46832 1.10283 0.57736
 C985 C 0.00479 0.70956 1.10314
 C986 C 0.00315 0.69242 1.09610
 C987 C 0.00134 0.67208 1.08730
 C988 C -0.01767 0.66422 1.08089
 C989 C -0.01933 0.64463 1.07191
 C990 C -0.00195 0.63262 1.06915
 C991 C 0.01707 0.64066 1.07573
 C992 C 0.01868 0.66022 1.08471
 C993 C -0.00359 0.61179 1.05957
 C994 C 0.01138 0.60467 1.04490
 C995 C 0.01033 0.58482 1.03662
 C996 C -0.00570 0.57177 1.04280
 C997 C -0.02087 0.57880 1.05706
 C998 C -0.01987 0.59868 1.06536
 C999 C -0.00575 0.55083 1.03571
 C1000 C -0.00511 0.53314 1.03050
 H1001 H -0.03120 0.67327 1.08270
 H1002 H -0.03415 0.63900 1.06680
 H1003 H 0.03070 0.63173 1.07416
 H1004 H 0.03348 0.66612 1.08961
 H1005 H 0.02393 0.61445 1.03984
 H1006 H 0.02221 0.57955 1.02566
 H1007 H -0.03326 0.56879 1.06212
 H1008 H -0.03151 0.60358 1.07680
 C1009 C 0.50215 0.72236 -0.10099
 C1010 C 0.50462 0.70584 -0.09280
 C1011 C 0.50738 0.68637 -0.08236
 C1012 C 0.52688 0.67834 -0.08010
 C1013 C 0.52955 0.65973 -0.06935
 C1014 C 0.51273 0.64890 -0.06062
 C1015 C 0.49320 0.65709 -0.06305
 C1016 C 0.49057 0.67567 -0.07381
 C1017 C 0.51542 0.62901 -0.04931
 C1018 C 0.50375 0.62391 -0.03050
 C1019 C 0.50526 0.60471 -0.02077
 C1020 C 0.51851 0.59033 -0.02960
 C1021 C 0.53060 0.59545 -0.04793
 C1022 C 0.52913 0.61466 -0.05768
 C1023 C 0.51807 0.56975 -0.02140
 C1024 C 0.51664 0.55222 -0.01568
 H1025 H 0.54003 0.68653 -0.08650
 H1026 H 0.54479 0.65396 -0.06758
 H1027 H 0.47990 0.64901 -0.05687
 H1028 H 0.47541 0.68172 -0.07543
 H1029 H 0.49329 0.63470 -0.02343
 H1030 H 0.49571 0.60090 -0.00670
 H1031 H 0.54072 0.58437 -0.05510
 H1032 H 0.53816 0.61799 -0.07227
 C1033 C 0.00234 1.22118 0.39789
 C1034 C 0.00477 1.20457 0.40586
 C1035 C 0.00745 1.18499 0.41612
 C1036 C -0.00956 1.17359 0.42299
 C1037 C -0.00707 1.15498 0.43374
 C1038 C 0.01250 1.14746 0.43784
 C1039 C 0.02952 1.15896 0.43072
 C1040 C 0.02699 1.17761 0.41998
 C1041 C 0.01504 1.12762 0.44928
 C1042 C 0.02985 1.11381 0.44214
 C1043 C 0.03129 1.09463 0.45199
 C1044 C 0.01805 1.08901 0.46918
 C1045 C 0.00367 1.10285 0.47681
 C1046 C 0.00219 1.12202 0.46699
 C1047 C 0.01770 1.06841 0.47731
 C1048 C 0.01635 1.05086 0.48299
 H1049 H -0.02476 1.17914 0.42013
 H1050 H -0.02050 1.14638 0.43864
 H1051 H 0.04478 1.15371 0.43379
 H1052 H 0.04028 1.18635 0.41488
 H1053 H 0.03983 1.11754 0.42841
 H1054 H 0.04232 1.08397 0.44574
 H1055 H -0.00677 1.09864 0.48999
 H1056 H -0.00915 1.13238 0.47312
 C1057 C 0.77435 0.64279 0.94289
 C1058 C 0.77814 0.65236 0.92638
 C1059 C 0.78195 0.66344 0.90629
 C1060 C 0.79201 0.65414 0.88863
 C1061 C 0.79387 0.66414 0.86832
 C1062 C 0.78563 0.68357 0.86544
 C1063 C 0.77615 0.69304 0.88355
 C1064 C 0.77431 0.68302 0.90383
 C1065 C 0.78526 0.69324 0.84328
 C1066 C 0.78783 0.71440 0.84106
 C1067 C 0.78437 0.72382 0.82072
 C1068 C 0.77845 0.71219 0.80238
 C1069 C 0.77693 0.69103 0.80413
 C1070 C 0.78036 0.68158 0.82444
 C1071 C 0.77102 0.72205 0.78290
 C1072 C 0.76322 0.73014 0.76730
 H1073 H 0.79796 0.63896 0.89038
 H1074 H 0.80141 0.65655 0.85474
 H1075 H 0.76934 0.70783 0.88179
 H1076 H 0.76637 0.69029 0.91736
 H1077 H 0.79184 0.72373 0.85521
 H1078 H 0.78542 0.74023 0.81957
 H1079 H 0.77208 0.68192 0.79009
 H1080 H 0.77799 0.66531 0.82566
 C1081 C 0.27440 0.14173 0.44181
 C1082 C 0.27815 0.15123 0.42525
 C1083 C 0.28191 0.16236 0.40518
 C1084 C 0.29178 0.15309 0.38737
 C1085 C 0.29363 0.16323 0.36713
 C1086 C 0.28556 0.18276 0.36449
 C1087 C 0.27627 0.19219 0.38274
 C1088 C 0.27445 0.18203 0.40294
 C1089 C 0.28517 0.19262 0.34243
 C1090 C 0.28793 0.21378 0.34040
 C1091 C 0.28444 0.22340 0.32019
 C1092 C 0.27830 0.21198 0.30177
 C1093 C 0.27659 0.19081 0.30332
 C1094 C 0.28005 0.18117 0.32351
 C1095 C 0.27092 0.22206 0.28241
 C1096 C 0.26318 0.23028 0.26686
 H1097 H 0.29759 0.13784 0.38896
 H1098 H 0.30102 0.15567 0.35344
 H1099 H 0.26959 0.20706 0.38116
 H1100 H 0.26666 0.18928 0.41659
 H1101 H 0.29212 0.22296 0.35461
 H1102 H 0.28565 0.23981 0.31919
 H1103 H 0.27159 0.18187 0.28922
 H1104 H 0.27754 0.16490 0.32458
 C1105 C 0.73135 0.35566 0.46296
 C1106 C 0.72744 0.34689 0.44597
 C1107 C 0.72306 0.33724 0.42516
 C1108 C 0.72876 0.31715 0.42141
 C1109 C 0.72601 0.30838 0.40055
 C1110 C 0.71756 0.31967 0.38315
 C1111 C 0.71137 0.33968 0.38727
 C1112 C 0.71411 0.34840 0.40816
 C1113 C 0.71673 0.31106 0.36049
 C1114 C 0.72289 0.32293 0.34225
 C1115 C 0.72484 0.31413 0.32132
 C1116 C 0.72052 0.29344 0.31836
 C1117 C 0.71342 0.28174 0.33616
 C1118 C 0.71148 0.29050 0.35711
 C1119 C 0.72618 0.28361 0.29810
 C1120 C 0.73238 0.27490 0.28199
 H1121 H 0.73582 0.30844 0.43444
 H1122 H 0.73124 0.29306 0.39779
 H1123 H 0.70468 0.34866 0.37425
 H1124 H 0.70966 0.36399 0.41091
 H1125 H 0.72728 0.33874 0.34439
 H1126 H 0.73063 0.32324 0.30771
 H1127 H 0.71022 0.26565 0.33406
 H1128 H 0.70646 0.28106 0.37080
 C1129 C 0.23224 0.85706 0.96333
 C1130 C 0.22844 0.84803 0.94646
 C1131 C 0.22409 0.83816 0.92576
 C1132 C 0.23037 0.81825 0.92198
 C1133 C 0.22753 0.80932 0.90121
 C1134 C 0.21843 0.82025 0.88394
 C1135 C 0.21169 0.84007 0.88809
 C1136 C 0.21451 0.84896 0.90889
 C1137 C 0.21738 0.81149 0.86135
 C1138 C 0.22281 0.82342 0.84289
 C1139 C 0.22447 0.81458 0.82194
 C1140 C 0.22059 0.79377 0.81920
 C1141 C 0.21423 0.78199 0.83726
 C1142 C 0.21259 0.79079 0.85822
 C1143 C 0.22594 0.78397 0.79883
 C1144 C 0.23190 0.77523 0.78263
 H1145 H 0.23791 0.80982 0.93490
 H1146 H 0.23317 0.79415 0.89841
 H1147 H 0.20448 0.84877 0.87518
 H1148 H 0.20961 0.86440 0.91167
 H1149 H 0.22684 0.83934 0.84482
 H1150 H 0.22969 0.82375 0.80812
 H1151 H 0.21139 0.76582 0.83533
 H1152 H 0.20815 0.78131 0.87209
 C1153 C 0.25365 0.86217 0.04080
 C1154 C 0.26005 0.85553 0.05796
 C1155 C 0.26732 0.84765 0.07862
 C1156 C 0.25912 0.85468 0.09853
 C1157 C 0.26519 0.84624 0.11860
 C1158 C 0.27956 0.83060 0.11905
 C1159 C 0.28813 0.82402 0.09896
 C1160 C 0.28203 0.83249 0.07887
 C1161 C 0.28415 0.82015 0.14018
 C1162 C 0.28523 0.79881 0.14083
 C1163 C 0.28618 0.78865 0.16107
 C1164 C 0.28618 0.79965 0.18090
 C1165 C 0.28634 0.82091 0.18040
 C1166 C 0.28543 0.83112 0.16016
 C1167 C 0.28221 0.78917 0.20132
 C1168 C 0.27668 0.78035 0.21776
 H1169 H 0.24768 0.86636 0.09850
 H1170 H 0.25801 0.85140 0.13370
 H1171 H 0.29934 0.81213 0.09878
 H1172 H 0.28851 0.82698 0.06354
 H1173 H 0.28400 0.78990 0.12581
 H1174 H 0.28568 0.77219 0.16128
 H1175 H 0.28610 0.82956 0.19567
 H1176 H 0.28492 0.84756 0.16017
 C1177 C 0.75401 0.35906 0.54004
 C1178 C 0.76070 0.35187 0.55678
 C1179 C 0.76830 0.34320 0.57691
 C1180 C 0.76525 0.32250 0.58115
 C1181 C 0.77134 0.31424 0.60130
 C1182 C 0.78059 0.32661 0.61755
 C1183 C 0.78410 0.34732 0.61290
 C1184 C 0.77798 0.35555 0.59269
 C1185 C 0.78487 0.31819 0.63983
 C1186 C 0.77994 0.32935 0.65893
 C1187 C 0.78068 0.32026 0.67979
 C1188 C 0.78645 0.29998 0.68185
 C1189 C 0.79258 0.28914 0.66311
 C1190 C 0.79189 0.29821 0.64222
 C1191 C 0.78244 0.28941 0.70222
 C1192 C 0.77689 0.28053 0.71860
 H1193 H 0.75770 0.31283 0.56908
 H1194 H 0.76806 0.29834 0.60450
 H1195 H 0.79131 0.35719 0.62500
 H1196 H 0.78044 0.37161 0.58956
 H1197 H 0.77424 0.34466 0.65766
 H1198 H 0.77558 0.32868 0.69414
 H1199 H 0.79684 0.27335 0.66448
 H1200 H 0.79607 0.28934 0.62786
 C1201 C 0.25301 0.14062 0.52075
 C1202 C 0.24776 0.14822 0.53795
 C1203 C 0.24183 0.15745 0.55852
 C1204 C 0.24760 0.17756 0.56303
 C1205 C 0.24282 0.18632 0.58342
 C1206 C 0.23218 0.17504 0.59962
 C1207 C 0.22608 0.15494 0.59476
 C1208 C 0.23088 0.14621 0.57432
 C1209 C 0.22877 0.18386 0.62194
 C1210 C 0.23200 0.17211 0.64101
 C1211 C 0.23159 0.18108 0.66197
 C1212 C 0.22786 0.20187 0.66416
 C1213 C 0.22360 0.21347 0.64540
 C1214 C 0.22397 0.20452 0.62441
 C1215 C 0.23157 0.21173 0.68501
 C1216 C 0.23658 0.21985 0.70206
 H1217 H 0.25614 0.18637 0.55095
 H1218 H 0.24807 0.20168 0.58678
 H1219 H 0.21773 0.14594 0.60681
 H1220 H 0.22631 0.13062 0.57096
 H1221 H 0.23599 0.15625 0.63967
 H1222 H 0.23521 0.17203 0.67636
 H1223 H 0.22088 0.22961 0.64690
 H1224 H 0.22114 0.21389 0.61007
 C1225 C 0.75250 0.64076 0.02168
 C1226 C 0.74729 0.64824 0.03895
 C1227 C 0.74148 0.65740 0.05960
 C1228 C 0.74689 0.67764 0.06394
 C1229 C 0.74228 0.68635 0.08440
 C1230 C 0.73217 0.67490 0.10085
 C1231 C 0.72641 0.65467 0.09616
 C1232 C 0.73104 0.64598 0.07565
 C1233 C 0.72902 0.68371 0.12322
 C1234 C 0.73287 0.67207 0.14224
 C1235 C 0.73272 0.68109 0.16318
 C1236 C 0.72863 0.70180 0.16542
 C1237 C 0.72375 0.71326 0.14674
 C1238 C 0.72386 0.70426 0.12577
 C1239 C 0.73253 0.71179 0.18617
 C1240 C 0.73764 0.72009 0.20307
 H1241 H 0.75504 0.68659 0.05166
 H1242 H 0.74727 0.70183 0.08760
 H1243 H 0.71847 0.64553 0.10842
 H1244 H 0.72675 0.63030 0.07244
 H1245 H 0.73714 0.65629 0.14084
 H1246 H 0.73681 0.67215 0.17751
 H1247 H 0.72073 0.72934 0.14827
 H1248 H 0.72053 0.71354 0.11148
 C1249 C 0.16596 0.54203 0.24795
 C1250 C 0.17592 0.55720 0.24455
 C1251 C 0.18710 0.57592 0.24163
 C1252 C 0.20220 0.58146 0.25685
 C1253 C 0.21138 0.60071 0.25579
 C1254 C 0.20550 0.61469 0.23951
 C1255 C 0.19078 0.60873 0.22383
 C1256 C 0.18161 0.58946 0.22493
 C1257 C 0.21376 0.63578 0.23982
 C1258 C 0.20080 0.65229 0.23634
 C1259 C 0.20820 0.67222 0.23816
 C1260 C 0.22862 0.67590 0.24344
 C1261 C 0.24173 0.65962 0.24655
 C1262 C 0.23437 0.63966 0.24474
 C1263 C 0.23586 0.69640 0.24637
 C1264 C 0.24155 0.71368 0.24905
 H1265 H 0.20639 0.57116 0.26999
 H1266 H 0.22244 0.60494 0.26827
 H1267 H 0.18613 0.61908 0.21095
 H1268 H 0.16985 0.58533 0.21314
 H1269 H 0.18480 0.64981 0.23289
 H1270 H 0.19791 0.68476 0.23583
 H1271 H 0.25758 0.66235 0.25063
 H1272 H 0.24474 0.62725 0.24729
 C1273 C 0.66638 0.04197 0.74733
 C1274 C 0.67635 0.05712 0.74381
 C1275 C 0.68747 0.07585 0.74079
 C1276 C 0.70297 0.08123 0.75560
 C1277 C 0.71205 0.10053 0.75459
 C1278 C 0.70566 0.11473 0.73877
 C1279 C 0.69055 0.10893 0.72346
 C1280 C 0.68149 0.08961 0.72451
 C1281 C 0.71379 0.13587 0.73924
 C1282 C 0.70063 0.15234 0.73649
 C1283 C 0.70794 0.17229 0.73848
 C1284 C 0.72846 0.17603 0.74322
 C1285 C 0.74177 0.15979 0.74558
 C1286 C 0.73449 0.13981 0.74359
 C1287 C 0.73565 0.19653 0.74633
 C1288 C 0.74136 0.21379 0.74918
 H1289 H 0.70754 0.07076 0.76843
 H1290 H 0.72342 0.10463 0.76679
 H1291 H 0.68550 0.11946 0.71094
 H1292 H 0.66942 0.08562 0.71305
 H1293 H 0.68456 0.14981 0.73348
 H1294 H 0.69751 0.18479 0.73672
 H1295 H 0.75770 0.16257 0.74922
 H1296 H 0.74501 0.12745 0.74556
 C1297 C 0.82820 0.03361 0.26719
 C1298 C 0.81824 0.04851 0.27047
 C1299 C 0.80748 0.06718 0.27297
 C1300 C 0.79305 0.07260 0.25717
 C1301 C 0.78506 0.09214 0.25721
 C1302 C 0.79152 0.10653 0.27304
 C1303 C 0.80536 0.10065 0.28947
 C1304 C 0.81333 0.08109 0.28938
 C1305 C 0.78509 0.12796 0.27125
 C1306 C 0.79938 0.14388 0.27414
 C1307 C 0.79384 0.16401 0.27063
 C1308 C 0.77399 0.16848 0.26424
 C1309 C 0.75955 0.15283 0.26177
 C1310 C 0.76505 0.13266 0.26526
 C1311 C 0.76864 0.18907 0.25952
 C1312 C 0.76424 0.20631 0.25535
 H1313 H 0.78864 0.06203 0.24421
 H1314 H 0.77465 0.09629 0.24418
 H1315 H 0.81040 0.11134 0.30202
 H1316 H 0.82463 0.07707 0.30158
 H1317 H 0.81501 0.14072 0.27836
 H1318 H 0.80514 0.17606 0.27250
 H1319 H 0.74412 0.15618 0.25686
 H1320 H 0.75369 0.12074 0.26311
 C1321 C 0.32817 0.53418 0.76718
 C1322 C 0.31803 0.54896 0.77041
 C1323 C 0.30704 0.56749 0.77295
 C1324 C 0.29278 0.57294 0.75697
 C1325 C 0.28456 0.59239 0.75716
 C1326 C 0.29062 0.60664 0.77330
 C1327 C 0.30425 0.60070 0.78991
 C1328 C 0.31245 0.58124 0.78968
 C1329 C 0.28405 0.62803 0.77166
 C1330 C 0.29819 0.64401 0.77496
 C1331 C 0.29259 0.66414 0.77155
 C1332 C 0.27281 0.66853 0.76484
 C1333 C 0.25849 0.65281 0.76198
 C1334 C 0.26407 0.63266 0.76537
 C1335 C 0.26744 0.68911 0.76013
 C1336 C 0.26307 0.70636 0.75596
 H1337 H 0.28870 0.56249 0.74378
 H1338 H 0.27431 0.59659 0.74399
 H1339 H 0.30897 0.61129 0.80271
 H1340 H 0.32360 0.57720 0.80203
 H1341 H 0.31378 0.64091 0.77941
 H1342 H 0.30378 0.67623 0.77371
 H1343 H 0.24312 0.65612 0.75681
 H1344 H 0.25283 0.62068 0.76289
 C1345 C 0.33671 0.46110 0.74887
 C1346 C 0.33100 0.44371 0.74706
 C1347 C 0.32413 0.42292 0.74549
 C1348 C 0.32570 0.41015 0.76387
 C1349 C 0.31861 0.39007 0.76268
 C1350 C 0.30984 0.38250 0.74306
 C1351 C 0.30851 0.39541 0.72459
 C1352 C 0.31560 0.41552 0.72583
 C1353 C 0.30188 0.36132 0.74202
 C1354 C 0.30509 0.34926 0.72313
 C1355 C 0.29761 0.32927 0.72229
 C1356 C 0.28680 0.32117 0.74027
 C1357 C 0.28349 0.33306 0.75910
 C1358 C 0.29097 0.35301 0.75999
 C1359 C 0.27921 0.30062 0.73966
 C1360 C 0.27277 0.28342 0.73987
 H1361 H 0.33234 0.41573 0.77915
 H1362 H 0.32010 0.38041 0.77706
 H1363 H 0.30164 0.39007 0.70935
 H1364 H 0.31428 0.42532 0.71153
 H1365 H 0.31363 0.35518 0.70915
 H1366 H 0.30032 0.32012 0.70768
 H1367 H 0.27509 0.32692 0.77308
 H1368 H 0.28802 0.36201 0.77463
 C1369 C 0.83718 0.96226 0.24729
 C1370 C 0.83106 0.94506 0.24498
 C1371 C 0.82362 0.92452 0.24267
 C1372 C 0.83727 0.90850 0.24088
 C1373 C 0.83001 0.88846 0.23951
 C1374 C 0.80897 0.88423 0.23999
 C1375 C 0.79537 0.90049 0.24152
 C1376 C 0.80267 0.92050 0.24287
 C1377 C 0.80123 0.86295 0.23941
 C1378 C 0.78499 0.85686 0.25321
 C1379 C 0.77782 0.83678 0.25293
 C1380 C 0.78672 0.82256 0.23885
 C1381 C 0.80288 0.82843 0.22504
 C1382 C 0.81011 0.84852 0.22532
 C1383 C 0.77945 0.80188 0.23896
 C1384 C 0.77323 0.78460 0.23965
 H1385 H 0.85353 0.91146 0.24081
 H1386 H 0.84084 0.87625 0.23861
 H1387 H 0.77910 0.89773 0.24163
 H1388 H 0.79198 0.93281 0.24423
 H1389 H 0.77807 0.86753 0.26450
 H1390 H 0.76541 0.83233 0.26380
 H1391 H 0.80989 0.81749 0.21412
 H1392 H 0.82250 0.85282 0.21437
 C1393 C 0.66053 0.96852 0.76453
 C1394 C 0.66683 0.95143 0.76419
 C1395 C 0.67441 0.93110 0.76281
 C1396 C 0.69284 0.92755 0.75198
 C1397 C 0.69981 0.90773 0.74948
 C1398 C 0.68839 0.89116 0.75779
 C1399 C 0.66997 0.89490 0.76887
 C1400 C 0.66303 0.91476 0.77135
 C1401 C 0.69551 0.87008 0.75445
 C1402 C 0.68170 0.85441 0.74870
 C1403 C 0.68854 0.83470 0.74488
 C1404 C 0.70925 0.83042 0.74675
 C1405 C 0.72307 0.84584 0.75264
 C1406 C 0.71627 0.86555 0.75648
 C1407 C 0.71637 0.81026 0.74249
 C1408 C 0.72246 0.79341 0.73893
 H1409 H 0.70168 0.94008 0.74514
 H1410 H 0.71388 0.90534 0.74058
 H1411 H 0.66097 0.88248 0.77567
 H1412 H 0.64870 0.91735 0.77971
 H1413 H 0.66567 0.85748 0.74673
 H1414 H 0.67773 0.82285 0.74029
 H1415 H 0.73913 0.84265 0.75420
 H1416 H 0.72723 0.87721 0.76115
 C1417 C 0.16041 0.46844 0.26430
 C1418 C 0.16683 0.45140 0.26372
 C1419 C 0.17458 0.43115 0.26204
 C1420 C 0.19221 0.42767 0.24970
 C1421 C 0.19930 0.40792 0.24700
 C1422 C 0.18881 0.39135 0.25661
 C1423 C 0.17120 0.39503 0.26920
 C1424 C 0.16413 0.41482 0.27187
 C1425 C 0.19604 0.37034 0.25314
 C1426 C 0.18213 0.35433 0.24896
 C1427 C 0.18903 0.33465 0.24507
 C1428 C 0.20988 0.33074 0.24531
 C1429 C 0.22383 0.34650 0.24961
 C1430 C 0.21697 0.36618 0.25350
 C1431 C 0.21701 0.31057 0.24111
 C1432 C 0.22306 0.29369 0.23766
 H1433 H 0.20031 0.44020 0.24187
 H1434 H 0.21272 0.40557 0.23696
 H1435 H 0.16294 0.38261 0.27701
 H1436 H 0.15043 0.41736 0.28142
 H1437 H 0.16595 0.35710 0.24829
 H1438 H 0.17812 0.32253 0.24174
 H1439 H 0.24000 0.34359 0.24992
 H1440 H 0.22803 0.37811 0.25696
 C1441 C 0.04423 0.24328 0.84324
 C1442 C 0.05906 0.24178 0.83154
 C1443 C 0.07692 0.23998 0.81781
 C1444 C 0.08939 0.25700 0.81384
 C1445 C 0.10712 0.25518 0.80119
 C1446 C 0.11267 0.23625 0.79230
 C1447 C 0.09989 0.21926 0.79616
 C1448 C 0.08215 0.22113 0.80882
 C1449 C 0.13214 0.23418 0.77990
 C1450 C 0.14461 0.21726 0.78336
 C1451 C 0.16378 0.21625 0.77336
 C1452 C 0.17075 0.23203 0.75967
 C1453 C 0.15817 0.24856 0.75549
 C1454 C 0.13899 0.24961 0.76547
 C1455 C 0.19161 0.23251 0.75230
 C1456 C 0.20948 0.23362 0.74779
 H1457 H 0.08557 0.27165 0.82077
 H1458 H 0.11676 0.26849 0.79887
 H1459 H 0.10360 0.20453 0.78938
 H1460 H 0.07260 0.20784 0.81174
 H1461 H 0.13993 0.20524 0.79457
 H1462 H 0.17349 0.20351 0.77698
 H1463 H 0.16345 0.26097 0.74508
 H1464 H 0.12966 0.26269 0.76220
 C1465 C 0.54529 0.74264 0.34408
 C1466 C 0.56010 0.74119 0.33236
 C1467 C 0.57796 0.73947 0.31861
 C1468 C 0.58342 0.72060 0.30985
 C1469 C 0.60118 0.71882 0.29721
 C1470 C 0.61375 0.73593 0.29314
 C1471 C 0.60797 0.75487 0.30180
 C1472 C 0.59023 0.75660 0.31443
 C1473 C 0.63325 0.73398 0.28077
 C1474 C 0.63989 0.74934 0.26613
 C1475 C 0.65909 0.74844 0.25618
 C1476 C 0.67189 0.73214 0.26059
 C1477 C 0.66514 0.71642 0.27449
 C1478 C 0.64595 0.71728 0.28447
 C1479 C 0.69275 0.73281 0.25321
 C1480 C 0.71060 0.73409 0.24867
 H1481 H 0.57404 0.70723 0.31294
 H1482 H 0.60508 0.70408 0.29061
 H1483 H 0.61745 0.76827 0.29932
 H1484 H 0.58622 0.77127 0.32120
 H1485 H 0.63038 0.76225 0.26269
 H1486 H 0.66421 0.76079 0.24562
 H1487 H 0.67503 0.70387 0.27829
 H1488 H 0.64144 0.70533 0.29584
 C1489 C 0.53611 0.26218 0.15435
 C1490 C 0.55122 0.26302 0.16563
 C1491 C 0.56976 0.26377 0.17831
 C1492 C 0.57903 0.24571 0.18471
 C1493 C 0.59782 0.24628 0.19550
 C1494 C 0.60767 0.26497 0.20004
 C1495 C 0.59802 0.28307 0.19395
 C1496 C 0.57921 0.28246 0.18314
 C1497 C 0.62834 0.26543 0.21004
 C1498 C 0.64337 0.27910 0.20218
 C1499 C 0.66329 0.27835 0.21019
 C1500 C 0.66848 0.26399 0.22619
 C1501 C 0.65353 0.25074 0.23461
 C1502 C 0.63359 0.25147 0.22663
 C1503 C 0.68943 0.26170 0.23253
 C1504 C 0.70711 0.25917 0.23688
 H1505 H 0.57196 0.23114 0.18090
 H1506 H 0.60495 0.23206 0.19962
 H1507 H 0.60507 0.29770 0.19741
 H1508 H 0.57220 0.29654 0.17822
 H1509 H 0.63993 0.28985 0.18921
 H1510 H 0.67478 0.28856 0.20340
 H1511 H 0.65739 0.23951 0.24694
 H1512 H 0.62234 0.24093 0.23325
 C1513 C 0.03559 0.76148 0.65439
 C1514 C 0.05064 0.76244 0.66576
 C1515 C 0.06911 0.76339 0.67856
 C1516 C 0.07845 0.78216 0.68325
 C1517 C 0.09721 0.78295 0.69416
 C1518 C 0.10690 0.76495 0.70052
 C1519 C 0.09715 0.74618 0.69613
 C1520 C 0.07842 0.74542 0.68522
 C1521 C 0.12752 0.76558 0.71063
 C1522 C 0.13275 0.75179 0.72740
 C1523 C 0.15266 0.75118 0.73546
 C1524 C 0.16762 0.76438 0.72696
 C1525 C 0.16244 0.77859 0.71078
 C1526 C 0.14254 0.77923 0.70269
 C1527 C 0.18856 0.76211 0.73331
 C1528 C 0.20624 0.75955 0.73765
 H1529 H 0.07141 0.79617 0.67813
 H1530 H 0.10418 0.79764 0.69750
 H1531 H 0.10432 0.73202 0.70045
 H1532 H 0.07143 0.73080 0.68152
 H1533 H 0.12150 0.74128 0.73408
 H1534 H 0.15651 0.74006 0.74791
 H1535 H 0.17394 0.78875 0.70392
 H1536 H 0.13913 0.78984 0.68960
 C1537 C 0.96042 0.75512 0.64548
 C1538 C 0.94327 0.75352 0.65255
 C1539 C 0.92291 0.75178 0.66140
 C1540 C 0.91008 0.76856 0.66109
 C1541 C 0.89053 0.76711 0.67019
 C1542 C 0.88347 0.74883 0.67980
 C1543 C 0.89644 0.73199 0.67990
 C1544 C 0.91601 0.73348 0.67080
 C1545 C 0.86270 0.74742 0.68964
 C1546 C 0.85045 0.72988 0.68670
 C1547 C 0.83062 0.72898 0.69522
 C1548 C 0.82279 0.74554 0.70689
 C1549 C 0.83499 0.76287 0.71025
 C1550 C 0.85478 0.76381 0.70174
 C1551 C 0.80188 0.74538 0.71416
 C1552 C 0.78419 0.74596 0.71952
 H1553 H 0.91522 0.78280 0.65386
 H1554 H 0.88085 0.78026 0.66951
 H1555 H 0.89158 0.71777 0.68737
 H1556 H 0.92583 0.72041 0.67125
 H1557 H 0.85598 0.71709 0.67728
 H1558 H 0.82127 0.71554 0.69235
 H1559 H 0.82910 0.77581 0.71919
 H1560 H 0.86390 0.77739 0.70463
 C1561 C 0.46088 0.25585 0.14584
 C1562 C 0.44376 0.25418 0.15296
 C1563 C 0.42342 0.25231 0.16184
 C1564 C 0.41158 0.26963 0.16467
 C1565 C 0.39203 0.26796 0.17374
 C1566 C 0.38399 0.24890 0.18016
 C1567 C 0.39597 0.23155 0.17714
 C1568 C 0.41554 0.23327 0.16807
 C1569 C 0.36316 0.24720 0.18981
 C1570 C 0.34999 0.23102 0.18391
 C1571 C 0.33011 0.22998 0.19226
 C1572 C 0.32313 0.24502 0.20669
 C1573 C 0.33623 0.26095 0.21300
 C1574 C 0.35609 0.26202 0.20467
 C1575 C 0.30218 0.24495 0.21383
 C1576 C 0.28447 0.24560 0.21909
 H1577 H 0.41748 0.28445 0.15989
 H1578 H 0.38312 0.28157 0.17550
 H1579 H 0.39033 0.21670 0.18211
 H1580 H 0.42458 0.21975 0.16606
 H1581 H 0.35485 0.21948 0.17234
 H1582 H 0.32006 0.21767 0.18709
 H1583 H 0.33100 0.27272 0.22409
 H1584 H 0.36591 0.27450 0.20982
 C1585 C 0.47067 0.75166 0.35057
 C1586 C 0.45414 0.75421 0.34244
 C1587 C 0.43466 0.75708 0.33203
 C1588 C 0.42661 0.77658 0.33005
 C1589 C 0.40799 0.77936 0.31932
 C1590 C 0.39719 0.76267 0.31034
 C1591 C 0.40542 0.74313 0.31249
 C1592 C 0.42400 0.74039 0.32323
 C1593 C 0.37730 0.76547 0.29908
 C1594 C 0.37224 0.75407 0.28008
 C1595 C 0.35303 0.75567 0.27039
 C1596 C 0.33860 0.76873 0.27945
 C1597 C 0.34368 0.78058 0.29795
 C1598 C 0.36290 0.77901 0.30767
 C1599 C 0.31799 0.76828 0.27132
 C1600 C 0.30044 0.76682 0.26566
 H1601 H 0.43478 0.78965 0.33665
 H1602 H 0.40220 0.79461 0.31777
 H1603 H 0.39736 0.72991 0.30611
 H1604 H 0.43007 0.72523 0.32462
 H1605 H 0.38307 0.74374 0.27285
 H1606 H 0.34924 0.74631 0.25618
 H1607 H 0.33256 0.79055 0.30529
 H1608 H 0.36620 0.78784 0.32240
 C1609 C 0.97094 0.25212 0.85129
 C1610 C 0.95439 0.25459 0.84318
 C1611 C 0.93488 0.25733 0.83279
 C1612 C 0.92351 0.24039 0.82575
 C1613 C 0.90493 0.24294 0.81496
 C1614 C 0.89740 0.26252 0.81100
 C1615 C 0.90889 0.27948 0.81825
 C1616 C 0.92751 0.27689 0.82902
 C1617 C 0.87754 0.26513 0.79961
 C1618 C 0.86370 0.27984 0.80691
 C1619 C 0.84448 0.28129 0.79715
 C1620 C 0.83885 0.26815 0.77989
 C1621 C 0.85273 0.25389 0.77209
 C1622 C 0.87193 0.25240 0.78182
 C1623 C 0.81821 0.26776 0.77187
 C1624 C 0.80064 0.26637 0.76626
 H1625 H 0.92905 0.22518 0.82852
 H1626 H 0.89633 0.22956 0.80994
 H1627 H 0.90365 0.29475 0.81527
 H1628 H 0.93624 0.29013 0.83425
 H1629 H 0.86743 0.28972 0.82070
 H1630 H 0.83378 0.29223 0.80352
 H1631 H 0.84851 0.24354 0.75886
 H1632 H 0.88232 0.24113 0.77558
 C1633 C 0.61383 0.99145 0.72411
 C1634 C 0.60350 0.98305 0.71032
 C1635 C 0.59149 0.97359 0.69320
 C1636 C 0.57146 0.97968 0.68978
 C1637 C 0.56049 0.97226 0.67164
 C1638 C 0.56945 0.95865 0.65663
 C1639 C 0.58932 0.95198 0.66072
 C1640 C 0.60027 0.95944 0.67889
 C1641 C 0.55884 0.95333 0.63568
 C1642 C 0.56956 0.95375 0.61550
 C1643 C 0.55913 0.95274 0.59541
 C1644 C 0.53789 0.95116 0.59522
 C1645 C 0.52720 0.94929 0.61518
 C1646 C 0.53761 0.95027 0.63531
 C1647 C 0.52711 0.95569 0.57522
 C1648 C 0.51849 0.96186 0.55908
 H1649 H 0.56457 0.99072 0.70067
 H1650 H 0.54538 0.97799 0.66878
 H1651 H 0.59656 0.94140 0.64957
 H1652 H 0.61579 0.95463 0.68139
 H1653 H 0.58586 0.95635 0.61518
 H1654 H 0.56752 0.95458 0.58008
 H1655 H 0.51073 0.94832 0.61524
 H1656 H 0.52897 0.94961 0.65058
 C1657 C 0.11362 0.49152 1.22415
 C1658 C 0.10334 0.48322 1.21025
 C1659 C 0.09138 0.47389 1.19302
 C1660 C 0.10019 0.45981 1.17863
 C1661 C 0.08928 0.45248 1.16038
 C1662 C 0.06943 0.45919 1.15626
 C1663 C 0.06045 0.47273 1.17134
 C1664 C 0.07137 0.48003 1.18956
 C1665 C 0.05886 0.45395 1.13528
 C1666 C 0.03763 0.45089 1.13485
 C1667 C 0.02726 0.44992 1.11470
 C1668 C 0.03799 0.45180 1.09476
 C1669 C 0.05923 0.45340 1.09501
 C1670 C 0.06962 0.45440 1.11512
 C1671 C 0.02724 0.45631 1.07473
 C1672 C 0.01863 0.46247 1.05858
 H1673 H 0.11569 0.45497 1.18116
 H1674 H 0.09654 0.44195 1.14918
 H1675 H 0.04535 0.47850 1.16846
 H1676 H 0.06446 0.49103 1.20050
 H1677 H 0.02896 0.45022 1.15009
 H1678 H 0.01079 0.44895 1.11471
 H1679 H 0.06765 0.45525 1.07969
 H1680 H 0.08592 0.45701 1.11484
 C1681 C -0.11948 0.00736 1.21705
 C1682 C -0.10950 0.00951 1.20047
 C1683 C -0.09834 0.01298 1.18032
 C1684 C -0.10272 0.00129 1.16155
 C1685 C -0.09278 0.00543 1.14157
 C1686 C -0.07835 0.02140 1.14010
 C1687 C -0.07397 0.03301 1.15911
 C1688 C -0.08396 0.02884 1.17908
 C1689 C -0.06753 0.02542 1.11895
 C1690 C -0.04645 0.02945 1.11880
 C1691 C -0.03586 0.03093 1.09879
 C1692 C -0.04619 0.02855 1.07871
 C1693 C -0.06729 0.02550 1.07867
 C1694 C -0.07792 0.02401 1.09867
 C1695 C -0.03483 0.02573 1.05866
 C1696 C -0.02515 0.02125 1.04250
 H1697 H -0.11391 -0.01095 1.16230
 H1698 H -0.09620 -0.00401 1.12734
 H1699 H -0.06306 0.04548 1.15844
 H1700 H -0.08063 0.03813 1.19348
 H1701 H -0.03800 0.03040 1.13413
 H1702 H -0.01947 0.03291 1.09900
 H1703 H -0.07539 0.02336 1.06323
 H1704 H -0.09419 0.02122 1.09827
 C1705 C 0.38032 0.50764 0.71699
 C1706 C 0.39036 0.50970 0.70043
 C1707 C 0.40166 0.51304 0.68035
 C1708 C 0.41622 0.52875 0.67919
 C1709 C 0.42638 0.53278 0.65929
 C1710 C 0.42201 0.52118 0.64027
 C1711 C 0.40740 0.50538 0.64165
 C1712 C 0.39728 0.50137 0.66156
 C1713 C 0.43302 0.52505 0.61920
 C1714 C 0.42275 0.52376 0.59884
 C1715 C 0.43353 0.52511 0.57893
 C1716 C 0.45466 0.52792 0.57913
 C1717 C 0.46489 0.53016 0.59929
 C1718 C 0.45414 0.52882 0.61922
 C1719 C 0.46611 0.52501 0.55916
 C1720 C 0.47583 0.52046 0.54305
 H1721 H 0.41956 0.53802 0.69360
 H1722 H 0.43744 0.54513 0.65868
 H1723 H 0.40397 0.49594 0.62741
 H1724 H 0.38596 0.48925 0.66225
 H1725 H 0.40645 0.52116 0.59831
 H1726 H 0.42551 0.52308 0.56342
 H1727 H 0.48129 0.53195 0.59963
 H1728 H 0.46250 0.52967 0.63462
 C1729 C 0.38364 0.48901 -0.20916
 C1730 C 0.39517 0.48293 -0.19528
 C1731 C 0.40856 0.47663 -0.17790
 C1732 C 0.40143 0.46347 -0.16135
 C1733 C 0.41349 0.45952 -0.14286
 C1734 C 0.43282 0.46877 -0.14069
 C1735 C 0.44016 0.48129 -0.15790
 C1736 C 0.42809 0.48521 -0.17634
 C1737 C 0.44445 0.46714 -0.11976
 C1738 C 0.46581 0.46618 -0.12004
 C1739 C 0.47688 0.46803 -0.10040
 C1740 C 0.46672 0.47073 -0.08026
 C1741 C 0.44546 0.47057 -0.07966
 C1742 C 0.43437 0.46874 -0.09927
 C1743 C 0.47795 0.47671 -0.06090
 C1744 C 0.48703 0.48338 -0.04515
 H1745 H 0.38629 0.45680 -0.16236
 H1746 H 0.40750 0.44966 -0.12999
 H1747 H 0.45482 0.48892 -0.15658
 H1748 H 0.43367 0.49557 -0.18896
 H1749 H 0.47398 0.46472 -0.13553
 H1750 H 0.49335 0.46830 -0.10105
 H1751 H 0.43746 0.47294 -0.06419
 H1752 H 0.41796 0.46982 -0.09850
 C1753 C -0.11720 0.98709 0.29044
 C1754 C -0.10572 0.98074 0.30422
 C1755 C -0.09235 0.97421 0.32151
 C1756 C -0.07251 0.98209 0.32260
 C1757 C -0.06040 0.97817 0.34103
 C1758 C -0.06803 0.96635 0.35867
 C1759 C -0.08767 0.95772 0.35695
 C1760 C -0.09977 0.96167 0.33849
 C1761 C -0.05632 0.96493 0.37958
 C1762 C -0.06623 0.96734 0.40007
 C1763 C -0.05499 0.96938 0.41955
 C1764 C -0.03374 0.96894 0.41885
 C1765 C -0.02378 0.96543 0.39875
 C1766 C -0.03500 0.96336 0.37922
 C1767 C -0.02227 0.97509 0.43798
 C1768 C -0.01305 0.98186 0.45358
 H1769 H -0.06669 0.99197 0.30965
 H1770 H -0.04548 0.98532 0.34197
 H1771 H -0.09388 0.94839 0.37015
 H1772 H -0.11514 0.95555 0.33783
 H1773 H -0.08258 0.96891 0.40091
 H1774 H -0.06283 0.97236 0.43499
 H1775 H -0.00732 0.96523 0.39800
 H1776 H -0.02696 0.96126 0.36375
 C1777 C 0.11374 0.51272 0.29729
 C1778 C 0.10260 0.51461 0.31300
 C1779 C 0.08986 0.51783 0.33201
 C1780 C 0.07235 0.52955 0.33019
 C1781 C 0.06059 0.53365 0.34894
 C1782 C 0.06628 0.52615 0.36977
 C1783 C 0.08387 0.51430 0.37138
 C1784 C 0.09558 0.51021 0.35263
 C1785 C 0.05371 0.53009 0.38971
 C1786 C 0.06297 0.53409 0.41026
 C1787 C 0.05121 0.53555 0.42946
 C1788 C 0.03006 0.53318 0.42836
 C1789 C 0.02063 0.53012 0.40786
 C1790 C 0.03236 0.52866 0.38863
 C1791 C 0.01854 0.53049 0.44838
 C1792 C 0.00944 0.52615 0.46506
 H1793 H 0.06791 0.53570 0.31433
 H1794 H 0.04722 0.54293 0.34721
 H1795 H 0.08845 0.50799 0.38711
 H1796 H 0.10916 0.50121 0.35423
 H1797 H 0.07935 0.53557 0.41155
 H1798 H 0.05869 0.53765 0.44529
 H1799 H 0.00429 0.52789 0.40689
 H1800 H 0.02480 0.52538 0.37310
 C1801 C 0.61415 0.01331 -0.20293
 C1802 C 0.60310 0.01537 -0.18719
 C1803 C 0.59047 0.01877 -0.16813
 C1804 C 0.57281 0.03026 -0.17001
 C1805 C 0.56113 0.03449 -0.15123
 C1806 C 0.56705 0.02735 -0.13032
 C1807 C 0.58481 0.01577 -0.12865
 C1808 C 0.59644 0.01154 -0.14743
 C1809 C 0.55451 0.03134 -0.11038
 C1810 C 0.56381 0.03570 -0.08993
 C1811 C 0.55212 0.03716 -0.07067
 C1812 C 0.53100 0.03440 -0.07163
 C1813 C 0.52152 0.03100 -0.09203
 C1814 C 0.53319 0.02955 -0.11132
 C1815 C 0.51961 0.03164 -0.05152
 C1816 C 0.51056 0.02723 -0.03484
 H1817 H 0.56818 0.03612 -0.18594
 H1818 H 0.54762 0.04356 -0.15301
 H1819 H 0.58958 0.00974 -0.11286
 H1820 H 0.61014 0.00273 -0.14578
 H1821 H 0.58018 0.03746 -0.08874
 H1822 H 0.55963 0.03954 -0.05491
 H1823 H 0.50522 0.02849 -0.09289
 H1824 H 0.52560 0.02599 -0.12676
 C1825 C 0.72747 0.59344 -0.02159
 C1826 C 0.71139 0.58444 -0.02103
 C1827 C 0.69176 0.57452 -0.02087
 C1828 C 0.67619 0.58212 -0.03407
 C1829 C 0.65686 0.57305 -0.03361
 C1830 C 0.65284 0.55621 -0.01989
 C1831 C 0.66865 0.54855 -0.00679
 C1832 C 0.68800 0.55767 -0.00729
 C1833 C 0.63207 0.54709 -0.01887
 C1834 C 0.62359 0.54111 0.00155
 C1835 C 0.60368 0.53346 0.00266
 C1836 C 0.59200 0.53166 -0.01659
 C1837 C 0.60037 0.53729 -0.03702
 C1838 C 0.62029 0.54493 -0.03818
 C1839 C 0.57125 0.52467 -0.01520
 C1840 C 0.55379 0.51911 -0.01355
 H1841 H 0.67892 0.59523 -0.04456
 H1842 H 0.64495 0.57950 -0.04361
 H1843 H 0.66607 0.53547 0.00375
 H1844 H 0.69996 0.55166 0.00300
 H1845 H 0.63216 0.54284 0.01673
 H1846 H 0.59730 0.52920 0.01856
 H1847 H 0.59144 0.53595 -0.05201
 H1848 H 0.62648 0.54916 -0.05417
 C1849 C 0.22721 1.09343 0.47861
 C1850 C 0.21095 1.08483 0.47977
 C1851 C 0.19111 1.07540 0.48081
 C1852 C 0.18821 1.05518 0.47420
 C1853 C 0.16868 1.04644 0.47436
 C1854 C 0.15183 1.05790 0.48105
 C1855 C 0.15498 1.07815 0.48788
 C1856 C 0.17448 1.08682 0.48773
 C1857 C 0.13101 1.04889 0.48081
 C1858 C 0.11447 1.06038 0.47344
 C1859 C 0.09477 1.05215 0.47380
 C1860 C 0.09134 1.03236 0.48146
 C1861 C 0.10770 1.02071 0.48861
 C1862 C 0.12744 1.02890 0.48824
 C1863 C 0.07092 1.02441 0.48291
 C1864 C 0.05367 1.01825 0.48464
 H1865 H 0.20097 1.04625 0.46869
 H1866 H 0.16669 1.03089 0.46882
 H1867 H 0.14236 1.08725 0.49344
 H1868 H 0.17658 1.10250 0.49287
 H1869 H 0.11678 1.07571 0.46734
 H1870 H 0.08219 1.06130 0.46829
 H1871 H 0.10516 1.00541 0.49474
 H1872 H 0.13984 1.01978 0.49424
 C1873 C 0.20806 -0.09201 1.01664
 C1874 C 0.19473 -0.08074 1.02220
 C1875 C 0.17773 -0.06801 1.02704
 C1876 C 0.17393 -0.05127 1.01352
 C1877 C 0.15553 -0.04106 1.01529
 C1878 C 0.14064 -0.04757 1.03058
 C1879 C 0.14506 -0.06375 1.04491
 C1880 C 0.16348 -0.07395 1.04309
 C1881 C 0.11999 -0.03882 1.02999
 C1882 C 0.10274 -0.05167 1.03136
 C1883 C 0.08329 -0.04390 1.02847
 C1884 C 0.08081 -0.02321 1.02420
 C1885 C 0.09780 -0.01017 1.02339
 C1886 C 0.11730 -0.01792 1.02629
 C1887 C 0.06087 -0.01572 1.01967
 C1888 C 0.04396 -0.01012 1.01559
 H1889 H 0.18475 -0.04673 1.00084
 H1890 H 0.15250 -0.02886 1.00382
 H1891 H 0.13399 -0.06893 1.05703
 H1892 H 0.16621 -0.08700 1.05352
 H1893 H 0.10430 -0.06787 1.03379
 H1894 H 0.07022 -0.05412 1.02901
 H1895 H 0.09600 0.00588 1.02010
 H1896 H 0.13028 -0.00764 1.02534
 C1897 C 0.70808 0.40569 0.51777
 C1898 C 0.69489 0.41704 0.52356
 C1899 C 0.67804 0.42989 0.52861
 C1900 C 0.67451 0.44693 0.51542
 C1901 C 0.65619 0.45726 0.51722
 C1902 C 0.64111 0.45060 0.53220
 C1903 C 0.64526 0.43415 0.54625
 C1904 C 0.66361 0.42381 0.54439
 C1905 C 0.62049 0.45943 0.53147
 C1906 C 0.60319 0.44661 0.53236
 C1907 C 0.58380 0.45447 0.52927
 C1908 C 0.58144 0.47522 0.52529
 C1909 C 0.59846 0.48823 0.52498
 C1910 C 0.61790 0.48039 0.52807
 C1911 C 0.56157 0.48284 0.52059
 C1912 C 0.54473 0.48856 0.51638
 H1913 H 0.68547 0.45158 0.50293
 H1914 H 0.65336 0.46969 0.50597
 H1915 H 0.63405 0.42884 0.55814
 H1916 H 0.66612 0.41053 0.55455
 H1917 H 0.60467 0.43037 0.53453
 H1918 H 0.57070 0.44428 0.52943
 H1919 H 0.59675 0.50433 0.52193
 H1920 H 0.63092 0.49065 0.52749
 C1921 C -0.22429 0.40700 0.49914
 C1922 C -0.20906 0.41736 0.49972
 C1923 C -0.19043 0.42902 0.49988
 C1924 C -0.17841 0.42995 0.48078
 C1925 C -0.15966 0.44017 0.48111
 C1926 C -0.15266 0.44958 0.50063
 C1927 C -0.16501 0.44886 0.51967
 C1928 C -0.18378 0.43861 0.51929
 C1929 C -0.13225 0.45943 0.50125
 C1930 C -0.11948 0.45679 0.51965
 C1931 C -0.09988 0.46524 0.51981
 C1932 C -0.09280 0.47643 0.50163
 C1933 C -0.10544 0.47939 0.48337
 C1934 C -0.12507 0.47096 0.48317
 C1935 C -0.07244 0.48456 0.50167
 C1936 C -0.05527 0.49110 0.50220
 H1937 H -0.18336 0.42244 0.46571
 H1938 H -0.15039 0.44020 0.46629
 H1939 H -0.16012 0.45616 0.53486
 H1940 H -0.19297 0.43794 0.53419
 H1941 H -0.12446 0.44776 0.53367
 H1942 H -0.09016 0.46285 0.53400
 H1943 H -0.10009 0.48810 0.46925
 H1944 H -0.13464 0.47346 0.46891
 C1945 C 0.27616 -0.09101 -0.00082
 C1946 C 0.29145 -0.08076 0.00003
 C1947 C 0.31013 -0.06921 0.00070
 C1948 C 0.32235 -0.06970 0.01961
 C1949 C 0.34125 -0.05972 0.01971
 C1950 C 0.34817 -0.04917 0.00085
 C1951 C 0.33561 -0.04845 -0.01794
 C1952 C 0.31670 -0.05844 -0.01799
 C1953 C 0.36870 -0.03956 0.00054
 C1954 C 0.38124 -0.04128 -0.01825
 C1955 C 0.40089 -0.03291 -0.01825
 C1956 C 0.40821 -0.02271 0.00048
 C1957 C 0.39580 -0.02074 0.01918
 C1958 C 0.37616 -0.02911 0.01922
 C1959 C 0.42863 -0.01473 0.00082
 C1960 C 0.44580 -0.00822 0.00161
 H1961 H 0.31745 -0.07814 0.03410
 H1962 H 0.35069 -0.06077 0.03431
 H1963 H 0.34043 -0.04024 -0.03260
 H1964 H 0.30736 -0.05802 -0.03273
 H1965 H 0.37604 -0.04951 -0.03275
 H1966 H 0.41046 -0.03461 -0.03275
 H1967 H 0.40137 -0.01287 0.03377
 H1968 H 0.36677 -0.02737 0.03384
 C1969 C 0.29641 1.09195 0.49767
 C1970 C 0.30949 1.08144 0.50529
 C1971 C 0.32601 1.06941 0.51321
 C1972 C 0.34300 1.07901 0.52271
 C1973 C 0.36026 1.06781 0.52774
 C1974 C 0.36078 1.04684 0.52325
 C1975 C 0.34332 1.03718 0.51448
 C1976 C 0.32606 1.04843 0.50945
 C1977 C 0.37996 1.03552 0.52603
 C1978 C 0.38617 1.02169 0.50968
 C1979 C 0.40506 1.01237 0.51112
 C1980 C 0.41796 1.01668 0.52894
 C1981 C 0.41177 1.03005 0.54558
 C1982 C 0.39285 1.03941 0.54417
 C1983 C 0.43804 1.00839 0.52915
 C1984 C 0.45497 1.00173 0.52819
 H1985 H 0.34319 1.09528 0.52547
 H1986 H 0.37353 1.07574 0.53417
 H1987 H 0.34318 1.02102 0.51108
 H1988 H 0.31302 1.04087 0.50199
 H1989 H 0.37679 1.01866 0.49531
 H1990 H 0.40982 1.00222 0.49803
 H1991 H 0.42171 1.03356 0.55938
 H1992 H 0.38841 1.04987 0.55709
 C1993 C -0.20369 0.59259 0.99835
 C1994 C -0.19060 0.58204 1.00588
 C1995 C -0.17405 0.56996 1.01367
 C1996 C -0.15714 0.57949 1.02340
 C1997 C -0.13982 0.56830 1.02826
 C1998 C -0.13917 0.54742 1.02335
 C1999 C -0.15656 0.53781 1.01435
 C2000 C -0.17387 0.54904 1.00950
 C2001 C -0.11993 0.53615 1.02595
 C2002 C -0.11361 0.52262 1.00934
 C2003 C -0.09470 0.51334 1.01067
 C2004 C -0.08187 0.51738 1.02861
 C2005 C -0.08816 0.53045 1.04550
 C2006 C -0.10710 0.53978 1.04420
 C2007 C -0.06178 0.50910 1.02876
 C2008 C -0.04485 0.50245 1.02777
 H2009 H -0.15704 0.59571 1.02648
 H2010 H -0.12660 0.57620 1.03488
 H2011 H -0.15660 0.52171 1.01063
 H2012 H -0.18685 0.54153 1.00186
 H2013 H -0.12294 0.51981 0.99488
 H2014 H -0.08986 0.50341 0.99740
 H2015 H -0.07828 0.53374 1.05941
 H2016 H -0.11162 0.54999 1.05732
 C2017 C -0.00035 0.72355 0.59512
 C2018 C -0.00167 0.70883 0.58324
 C2019 C -0.00246 0.69070 0.56981
 C2020 C -0.01973 0.67802 0.57019
 C2021 C -0.01976 0.65949 0.55878
 C2022 C -0.00246 0.65334 0.54688
 C2023 C 0.01465 0.66643 0.54618
 C2024 C 0.01464 0.68496 0.55758
 C2025 C -0.00194 0.63291 0.53630
 C2026 C 0.01557 0.62091 0.53781
 C2027 C 0.01549 0.60101 0.52961
 C2028 C -0.00203 0.59284 0.51969
 C2029 C -0.01930 0.60485 0.51749
 C2030 C -0.01927 0.62475 0.52569
 C2031 C -0.00302 0.57160 0.51387
 C2032 C -0.00447 0.55360 0.51028
 H2033 H -0.03298 0.68219 0.57976
 H2034 H -0.03307 0.64966 0.55995
 H2035 H 0.02812 0.66226 0.53698
 H2036 H 0.02814 0.69461 0.55723
 H2037 H 0.02906 0.62661 0.54613
 H2038 H 0.02887 0.59179 0.53165
 H2039 H -0.03300 0.59865 0.50997
 H2040 H -0.03289 0.63366 0.52401
 C2041 C 0.49987 0.22453 0.09514
 C2042 C 0.49851 0.20981 0.08326
 C2043 C 0.49771 0.19168 0.06984
 C2044 C 0.48054 0.17886 0.07044
 C2045 C 0.48054 0.16032 0.05908
 C2046 C 0.49777 0.15427 0.04700
 C2047 C 0.51478 0.16749 0.04607
 C2048 C 0.51474 0.18603 0.05743
 C2049 C 0.49834 0.13382 0.03644
 C2050 C 0.51595 0.12197 0.03774
 C2051 C 0.51595 0.10207 0.02953
 C2052 C 0.49840 0.09376 0.01981
 C2053 C 0.48100 0.10564 0.01784
 C2054 C 0.48097 0.12553 0.02605
 C2055 C 0.49753 0.07254 0.01394
 C2056 C 0.49618 0.05454 0.01031
 H2057 H 0.46734 0.18296 0.08015
 H2058 H 0.46731 0.15039 0.06041
 H2059 H 0.52819 0.16340 0.03673
 H2060 H 0.52816 0.19578 0.05691
 H2061 H 0.52949 0.12777 0.04591
 H2062 H 0.52943 0.09295 0.03140
 H2063 H 0.46728 0.09933 0.01048
 H2064 H 0.46725 0.13432 0.02453
 C2065 C 0.00050 0.21170 0.90105
 C2066 C -0.00313 0.19769 0.91342
 C2067 C -0.00633 0.18034 0.92767
 C2068 C -0.02537 0.17058 0.92889
 C2069 C -0.02782 0.15270 0.94125
 C2070 C -0.01121 0.14429 0.95253
 C2071 C 0.00773 0.15452 0.95159
 C2072 C 0.01013 0.17237 0.93926
 C2073 C -0.01318 0.12435 0.96410
 C2074 C -0.00248 0.12068 0.98384
 C2075 C -0.00261 0.10129 0.99336
 C2076 C -0.01353 0.08531 0.98341
 C2077 C -0.02483 0.08899 0.96426
 C2078 C -0.02469 0.10834 0.95468
 C2079 C -0.01149 0.06479 0.99136
 C2080 C -0.00905 0.04732 0.99672
 H2081 H -0.03822 0.17656 0.91995
 H2082 H -0.04266 0.14536 0.94182
 H2083 H 0.02093 0.14834 0.95971
 H2084 H 0.02499 0.17966 0.93831
 H2085 H 0.00629 0.13271 0.99170
 H2086 H 0.00628 0.09863 1.00811
 H2087 H -0.03317 0.07671 0.95626
 H2088 H -0.03287 0.11051 0.93936
 C2089 C 0.50166 0.71089 0.40180
 C2090 C 0.49809 0.69686 0.41416
 C2091 C 0.49495 0.67950 0.42841
 C2092 C 0.47587 0.66984 0.42984
 C2093 C 0.47345 0.65196 0.44221
 C2094 C 0.49012 0.64346 0.45330
 C2095 C 0.50911 0.65360 0.45215
 C2096 C 0.51148 0.67144 0.43981
 C2097 C 0.48817 0.62352 0.46487
 C2098 C 0.49904 0.61979 0.48447
 C2099 C 0.49893 0.60039 0.49397
 C2100 C 0.48785 0.58447 0.48413
 C2101 C 0.47637 0.58821 0.46512
 C2102 C 0.47649 0.60757 0.45557
 C2103 C 0.48986 0.56393 0.49205
 C2104 C 0.49223 0.54645 0.49738
 H2105 H 0.46296 0.67589 0.42105
 H2106 H 0.45858 0.64469 0.44294
 H2107 H 0.52235 0.64735 0.46012
 H2108 H 0.52636 0.67866 0.43870
 H2109 H 0.50794 0.63177 0.49225
 H2110 H 0.50796 0.59767 0.50861
 H2111 H 0.46789 0.57597 0.45721
 H2112 H 0.46817 0.60979 0.44035
 C2113 C 0.50981 0.77999 0.40399
 C2114 C 0.50857 0.79399 0.41685
 C2115 C 0.50757 0.81110 0.43178
 C2116 C 0.49043 0.82346 0.43198
 C2117 C 0.48995 0.84074 0.44550
 C2118 C 0.50667 0.84596 0.45902
 C2119 C 0.52369 0.83323 0.45896
 C2120 C 0.52412 0.81595 0.44544
 C2121 C 0.50661 0.86501 0.47237
 C2122 C 0.52420 0.87743 0.47375
 C2123 C 0.52373 0.89608 0.48489
 C2124 C 0.50575 0.90258 0.49492
 C2125 C 0.48833 0.89010 0.49416
 C2126 C 0.48874 0.87145 0.48301
 C2127 C 0.50463 0.92278 0.50409
 C2128 C 0.50334 0.94011 0.51047
 H2129 H 0.47757 0.81996 0.42139
 H2130 H 0.47674 0.85034 0.44487
 H2131 H 0.53670 0.83667 0.46934
 H2132 H 0.53749 0.80652 0.44542
 H2133 H 0.53811 0.87310 0.46550
 H2134 H 0.53725 0.90571 0.48512
 H2135 H 0.47427 0.89501 0.50172
 H2136 H 0.47502 0.86215 0.48251
 C2137 C 0.00882 0.28074 0.90319
 C2138 C 0.00764 0.29472 0.91608
 C2139 C 0.00674 0.31181 0.93104
 C2140 C 0.02335 0.31658 0.94466
 C2141 C 0.02303 0.33385 0.95820
 C2142 C 0.00608 0.34667 0.95830
 C2143 C -0.01069 0.34155 0.94482
 C2144 C -0.01033 0.32427 0.93129
 C2145 C 0.00615 0.36572 0.97168
 C2146 C -0.01165 0.37225 0.98236
 C2147 C -0.01194 0.39089 0.99354
 C2148 C 0.00556 0.40326 0.99429
 C2149 C 0.02349 0.39667 0.98422
 C2150 C 0.02382 0.37803 0.97304
 C2151 C 0.00458 0.42346 1.00349
 C2152 C 0.00339 0.44079 1.00991
 H2153 H 0.03666 0.30708 0.94461
 H2154 H 0.03608 0.33721 0.96855
 H2155 H -0.02385 0.35122 0.94423
 H2156 H -0.02322 0.32085 0.92072
 H2157 H -0.02543 0.36304 0.98188
 H2158 H -0.02595 0.39588 1.00114
 H2159 H 0.03707 0.40621 0.98444
 H2160 H 0.03769 0.37362 0.96477
 C2161 C 0.49588 0.29442 0.09524
 C2162 C 0.49353 0.30856 0.08284
 C2163 C 0.49198 0.32611 0.06870
 C2164 C 0.50937 0.33361 0.05788
 C2165 C 0.50865 0.35173 0.04588
 C2166 C 0.49048 0.36271 0.04452
 C2167 C 0.47291 0.35476 0.05496
 C2168 C 0.47368 0.33661 0.06700
 C2169 C 0.49032 0.38293 0.03345
 C2170 C 0.47959 0.39916 0.04289
 C2171 C 0.48105 0.41867 0.03379
 C2172 C 0.49320 0.42228 0.01512
 C2173 C 0.50339 0.40613 0.00515
 C2174 C 0.50193 0.38658 0.01420
 C2175 C 0.49652 0.44281 0.00748
 C2176 C 0.49972 0.46025 0.00223
 H2177 H 0.52367 0.32573 0.05924
 H2178 H 0.52253 0.35753 0.03840
 H2179 H 0.45863 0.36270 0.05403
 H2180 H 0.46013 0.33101 0.07536
 H2181 H 0.47075 0.39700 0.05786
 H2182 H 0.47320 0.43107 0.04175
 H2183 H 0.51288 0.40873 -0.00928
 H2184 H 0.51014 0.37439 0.00633
 C2185 C -0.00423 0.79336 0.59475
 C2186 C -0.00645 0.80742 0.58220
 C2187 C -0.00785 0.82488 0.56790
 C2188 C 0.00967 0.83237 0.55734
 C2189 C 0.00908 0.85043 0.54522
 C2190 C -0.00909 0.86135 0.54347
 C2191 C -0.02679 0.85340 0.55365
 C2192 C -0.02615 0.83531 0.56581
 C2193 C -0.00915 0.88152 0.53228
 C2194 C -0.02007 0.89776 0.54144
 C2195 C -0.01856 0.91722 0.53224
 C2196 C -0.00615 0.92079 0.51376
 C2197 C 0.00426 0.90463 0.50408
 C2198 C 0.00274 0.88513 0.51322
 C2199 C -0.00287 0.94129 0.50603
 C2200 C 0.00023 0.95874 0.50073
 H2201 H 0.02398 0.82455 0.55900
 H2202 H 0.02306 0.85624 0.53796
 H2203 H -0.04108 0.86128 0.55242
 H2204 H -0.03981 0.82971 0.57396
 H2205 H -0.02912 0.89563 0.55626
 H2206 H -0.02658 0.92963 0.53998
 H2207 H 0.01395 0.90721 0.48980
 H2208 H 0.01111 0.87293 0.50557
 C2209 C 0.24261 0.36429 0.02514
 C2210 C 0.23443 0.35402 0.03915
 C2211 C 0.22518 0.34210 0.05649
 C2212 C 0.21097 0.35086 0.07077
 C2213 C 0.20366 0.34000 0.08908
 C2214 C 0.21052 0.32024 0.09335
 C2215 C 0.22421 0.31131 0.07839
 C2216 C 0.23149 0.32219 0.06011
 C2217 C 0.20526 0.30972 0.11436
 C2218 C 0.20233 0.28850 0.11487
 C2219 C 0.20137 0.27818 0.13506
 C2220 C 0.20314 0.28897 0.15495
 C2221 C 0.20460 0.31019 0.15463
 C2222 C 0.20558 0.32053 0.13447
 C2223 C 0.20767 0.27830 0.17502
 C2224 C 0.21384 0.26972 0.19119
 H2225 H 0.20600 0.36629 0.06810
 H2226 H 0.19302 0.34722 0.10019
 H2227 H 0.23009 0.29629 0.08139
 H2228 H 0.24257 0.31532 0.04924
 H2229 H 0.20175 0.27979 0.09966
 H2230 H 0.20051 0.26173 0.13511
 H2231 H 0.20635 0.31866 0.16992
 H2232 H 0.20808 0.33683 0.13469
 C2233 C 0.74224 0.86411 0.52640
 C2234 C 0.73393 0.85388 0.54036
 C2235 C 0.72456 0.84200 0.55765
 C2236 C 0.71038 0.85084 0.57190
 C2237 C 0.70297 0.84002 0.59020
 C2238 C 0.70972 0.82022 0.59448
 C2239 C 0.72338 0.81121 0.57954
 C2240 C 0.73075 0.82205 0.56128
 C2241 C 0.70441 0.80975 0.61551
 C2242 C 0.70138 0.78854 0.61605
 C2243 C 0.70042 0.77825 0.63626
 C2244 C 0.70230 0.78905 0.65613
 C2245 C 0.70383 0.81027 0.65578
 C2246 C 0.70481 0.82058 0.63560
 C2247 C 0.70694 0.77838 0.67617
 C2248 C 0.71323 0.76978 0.69226
 H2249 H 0.70550 0.86630 0.56924
 H2250 H 0.69236 0.84729 0.60130
 H2251 H 0.72918 0.79616 0.58256
 H2252 H 0.74183 0.81513 0.55045
 H2253 H 0.70074 0.77981 0.60085
 H2254 H 0.69950 0.76180 0.63633
 H2255 H 0.70566 0.81875 0.67105
 H2256 H 0.70738 0.83687 0.63579
 C2257 C 0.25784 0.63094 0.53279
 C2258 C 0.25997 0.64093 0.54934
 C2259 C 0.26340 0.65216 0.56944
 C2260 C 0.27918 0.66663 0.57059
 C2261 C 0.28329 0.67671 0.59050
 C2262 C 0.27171 0.67234 0.60955
 C2263 C 0.25583 0.65780 0.60818
 C2264 C 0.25174 0.64777 0.58826
 C2265 C 0.27567 0.68327 0.63062
 C2266 C 0.27435 0.67298 0.65098
 C2267 C 0.27586 0.68370 0.67090
 C2268 C 0.27884 0.70479 0.67072
 C2269 C 0.28110 0.71503 0.65057
 C2270 C 0.27960 0.70435 0.63063
 C2271 C 0.27613 0.71623 0.69072
 C2272 C 0.27174 0.72598 0.70685
 H2273 H 0.28844 0.66997 0.55616
 H2274 H 0.29570 0.68770 0.59108
 H2275 H 0.24640 0.65437 0.62245
 H2276 H 0.23956 0.63651 0.58758
 H2277 H 0.27162 0.65671 0.65149
 H2278 H 0.27381 0.67566 0.68641
 H2279 H 0.28303 0.73141 0.65024
 H2280 H 0.28047 0.71273 0.61524
 C2281 C 0.75818 0.13090 0.03273
 C2282 C 0.76061 0.14091 0.04923
 C2283 C 0.76431 0.15211 0.06929
 C2284 C 0.78011 0.16658 0.07023
 C2285 C 0.78444 0.17667 0.09009
 C2286 C 0.77305 0.17230 0.10928
 C2287 C 0.75717 0.15776 0.10812
 C2288 C 0.75286 0.14772 0.08826
 C2289 C 0.77717 0.18329 0.13029
 C2290 C 0.77602 0.17303 0.15068
 C2291 C 0.77755 0.18381 0.17056
 C2292 C 0.78037 0.20492 0.17030
 C2293 C 0.78250 0.21512 0.15011
 C2294 C 0.78099 0.20438 0.13021
 C2295 C 0.77754 0.21639 0.19027
 C2296 C 0.77304 0.22613 0.20637
 H2297 H 0.78922 0.16992 0.05568
 H2298 H 0.79684 0.18767 0.09052
 H2299 H 0.74789 0.15433 0.12250
 H2300 H 0.74068 0.13646 0.08773
 H2301 H 0.77339 0.15676 0.15125
 H2302 H 0.77560 0.17581 0.18610
 H2303 H 0.78431 0.23151 0.14973
 H2304 H 0.78173 0.21273 0.11480
 C2305 C 0.73736 0.13320 0.95950
 C2306 C 0.73113 0.14470 0.94568
 C2307 C 0.72470 0.15807 0.92834
 C2308 C 0.73305 0.17770 0.92690
 C2309 C 0.72911 0.18977 0.90845
 C2310 C 0.71682 0.18231 0.89112
 C2311 C 0.70778 0.16289 0.89317
 C2312 C 0.71174 0.15083 0.91166
 C2313 C 0.71525 0.19394 0.87017
 C2314 C 0.71712 0.18391 0.84969
 C2315 C 0.71901 0.19503 0.83010
 C2316 C 0.71895 0.21627 0.83069
 C2317 C 0.71599 0.22637 0.85081
 C2318 C 0.71408 0.21528 0.87044
 C2319 C 0.72498 0.22757 0.81138
 C2320 C 0.73168 0.23673 0.79569
 H2321 H 0.74326 0.18337 0.93961
 H2322 H 0.73658 0.20450 0.90723
 H2323 H 0.69809 0.15682 0.88021
 H2324 H 0.70526 0.13562 0.91258
 H2325 H 0.71837 0.16754 0.84892
 H2326 H 0.72157 0.18708 0.81465
 H2327 H 0.71610 0.24283 0.85147
 H2328 H 0.71243 0.22341 0.88591
 C2329 C 0.23826 0.63352 0.45911
 C2330 C 0.23204 0.64497 0.44524
 C2331 C 0.22559 0.65832 0.42788
 C2332 C 0.21239 0.65114 0.41139
 C2333 C 0.20832 0.66320 0.39293
 C2334 C 0.21747 0.68256 0.39072
 C2335 C 0.23003 0.68994 0.40787
 C2336 C 0.23408 0.67787 0.42629
 C2337 C 0.21570 0.69421 0.36981
 C2338 C 0.21466 0.71556 0.37013
 C2339 C 0.21641 0.72666 0.35050
 C2340 C 0.21907 0.71657 0.33033
 C2341 C 0.21897 0.69532 0.32970
 C2342 C 0.21724 0.68419 0.34930
 C2343 C 0.22500 0.72785 0.31097
 C2344 C 0.23164 0.73698 0.29523
 H2345 H 0.20580 0.63599 0.41243
 H2346 H 0.19843 0.65719 0.38011
 H2347 H 0.23760 0.70461 0.40652
 H2348 H 0.24447 0.68349 0.43885
 H2349 H 0.21324 0.72368 0.38564
 H2350 H 0.21664 0.74312 0.35118
 H2351 H 0.22130 0.68737 0.31420
 H2352 H 0.21838 0.66781 0.34849
 C2353 C 0.76430 0.86424 0.45344
 C2354 C 0.76684 0.85305 0.43792
 C2355 C 0.77090 0.84030 0.41914
 C2356 C 0.78647 0.84579 0.40438
 C2357 C 0.79047 0.83369 0.38591
 C2358 C 0.77894 0.81589 0.38198
 C2359 C 0.76346 0.81037 0.39706
 C2360 C 0.75948 0.82252 0.41553
 C2361 C 0.78235 0.80363 0.36172
 C2362 C 0.78123 0.78227 0.36248
 C2363 C 0.78227 0.77086 0.34300
 C2364 C 0.78455 0.78063 0.32258
 C2365 C 0.78653 0.80181 0.32174
 C2366 C 0.78551 0.81325 0.34119
 C2367 C 0.78157 0.76934 0.30247
 C2368 C 0.77706 0.76035 0.28580
 H2369 H 0.79548 0.85949 0.40710
 H2370 H 0.80259 0.83823 0.37473
 H2371 H 0.75411 0.79692 0.39429
 H2372 H 0.74739 0.81814 0.42685
 H2373 H 0.77906 0.77444 0.37807
 H2374 H 0.78044 0.75448 0.34379
 H2375 H 0.78791 0.80954 0.30597
 H2376 H 0.78618 0.82967 0.34003
 C2377 C 0.26366 0.36442 0.95194
 C2378 C 0.26571 0.35314 0.93641
 C2379 C 0.26905 0.34020 0.91760
 C2380 C 0.27898 0.32168 0.92016
 C2381 C 0.28307 0.30957 0.90168
 C2382 C 0.27732 0.31591 0.88039
 C2383 C 0.26733 0.33455 0.87803
 C2384 C 0.26325 0.34660 0.89651
 C2385 C 0.28102 0.30290 0.86076
 C2386 C 0.28693 0.31160 0.84043
 C2387 C 0.28812 0.29964 0.82136
 C2388 C 0.28353 0.27884 0.82239
 C2389 C 0.27855 0.26987 0.84271
 C2390 C 0.27738 0.28180 0.86181
 C2391 C 0.28060 0.26750 0.80230
 C2392 C 0.27610 0.25859 0.78557
 H2393 H 0.28372 0.31669 0.93640
 H2394 H 0.29091 0.29539 0.90399
 H2395 H 0.26240 0.33968 0.86192
 H2396 H 0.25564 0.36095 0.89434
 H2397 H 0.29011 0.32776 0.83918
 H2398 H 0.29175 0.30677 0.80567
 H2399 H 0.27461 0.25384 0.84361
 H2400 H 0.27259 0.27469 0.87714
 C2401 C 0.84255 0.47718 0.77142
 C2402 C 0.83402 0.46089 0.77032
 C2403 C 0.82470 0.44101 0.76937
 C2404 C 0.83670 0.42415 0.76475
 C2405 C 0.82803 0.40465 0.76463
 C2406 C 0.80720 0.40175 0.76916
 C2407 C 0.79518 0.41882 0.77356
 C2408 C 0.80391 0.43834 0.77370
 C2409 C 0.79815 0.38097 0.76932
 C2410 C 0.77902 0.37709 0.75968
 C2411 C 0.77089 0.35734 0.75918
 C2412 C 0.78171 0.34129 0.76839
 C2413 C 0.80061 0.34504 0.77828
 C2414 C 0.80877 0.36475 0.77878
 C2415 C 0.77394 0.32083 0.76678
 C2416 C 0.76789 0.30357 0.76492
 H2417 H 0.85281 0.42606 0.76136
 H2418 H 0.83760 0.39185 0.76084
 H2419 H 0.77914 0.41703 0.77730
 H2420 H 0.79451 0.45130 0.77741
 H2421 H 0.77060 0.38922 0.75205
 H2422 H 0.75631 0.35455 0.75132
 H2423 H 0.80912 0.33269 0.78541
 H2424 H 0.82339 0.36731 0.78660
 C2425 C 0.34118 0.97742 0.27061
 C2426 C 0.33173 0.96164 0.26939
 C2427 C 0.32117 0.94239 0.26824
 C2428 C 0.32273 0.93036 0.24922
 C2429 C 0.31371 0.91101 0.24865
 C2430 C 0.30303 0.90341 0.26715
 C2431 C 0.30126 0.91576 0.28606
 C2432 C 0.31029 0.93512 0.28659
 C2433 C 0.29439 0.88245 0.26693
 C2434 C 0.29610 0.86987 0.28563
 C2435 C 0.28874 0.84984 0.28511
 C2436 C 0.27954 0.84216 0.26594
 C2437 C 0.27755 0.85461 0.24734
 C2438 C 0.28491 0.87463 0.24781
 C2439 C 0.27272 0.82135 0.26501
 C2440 C 0.26723 0.80386 0.26361
 H2441 H 0.33127 0.93579 0.23499
 H2442 H 0.31559 0.90177 0.23396
 H2443 H 0.29293 0.91042 0.30046
 H2444 H 0.30905 0.94429 0.30143
 H2445 H 0.30359 0.87535 0.30047
 H2446 H 0.29047 0.84027 0.29954
 H2447 H 0.27047 0.84878 0.23240
 H2448 H 0.28317 0.88401 0.23325
 C2449 C 0.15739 0.95788 0.73251
 C2450 C 0.16907 0.94501 0.72668
 C2451 C 0.18224 0.92844 0.72152
 C2452 C 0.19907 0.92482 0.73500
 C2453 C 0.20957 0.90660 0.73309
 C2454 C 0.20326 0.89172 0.71774
 C2455 C 0.18706 0.89601 0.70338
 C2456 C 0.17657 0.91424 0.70534
 C2457 C 0.21209 0.87112 0.71843
 C2458 C 0.19925 0.85385 0.71712
 C2459 C 0.20703 0.83446 0.72021
 C2460 C 0.22772 0.83203 0.72462
 C2461 C 0.24075 0.84902 0.72535
 C2462 C 0.23299 0.86848 0.72226
 C2463 C 0.23520 0.81213 0.72934
 C2464 C 0.24077 0.79525 0.73356
 H2465 H 0.20341 0.93559 0.74779
 H2466 H 0.22180 0.90367 0.74457
 H2467 H 0.18204 0.88495 0.69120
 H2468 H 0.16345 0.91683 0.69495
 H2469 H 0.18305 0.85538 0.71462
 H2470 H 0.19682 0.82138 0.71974
 H2471 H 0.25680 0.84726 0.72874
 H2472 H 0.24325 0.88148 0.72318
 C2473 C 0.65875 0.45844 0.23389
 C2474 C 0.67020 0.44538 0.22802
 C2475 C 0.68312 0.42863 0.22282
 C2476 C 0.69984 0.42471 0.23635
 C2477 C 0.71017 0.40641 0.23429
 C2478 C 0.70382 0.39175 0.21871
 C2479 C 0.68769 0.39632 0.20436
 C2480 C 0.67736 0.41463 0.20647
 C2481 C 0.71263 0.37113 0.21904
 C2482 C 0.69982 0.35388 0.21731
 C2483 C 0.70761 0.33443 0.22007
 C2484 C 0.72827 0.33195 0.22455
 C2485 C 0.74128 0.34894 0.22568
 C2486 C 0.73352 0.36844 0.22291
 C2487 C 0.73576 0.31201 0.22904
 C2488 C 0.74139 0.29512 0.23313
 H2489 H 0.70424 0.43532 0.24927
 H2490 H 0.72232 0.40326 0.24578
 H2491 H 0.68263 0.38543 0.19202
 H2492 H 0.66432 0.41745 0.19604
 H2493 H 0.68362 0.35543 0.21475
 H2494 H 0.69741 0.32136 0.21928
 H2495 H 0.75731 0.34715 0.22913
 H2496 H 0.74377 0.38142 0.22414
 C2497 C 0.65816 0.52628 0.25383
 C2498 C 0.66772 0.54201 0.25363
 C2499 C 0.67834 0.56123 0.25375
 C2500 C 0.69735 0.56338 0.24349
 C2501 C 0.70736 0.58228 0.24338
 C2502 C 0.69843 0.59922 0.25356
 C2503 C 0.67936 0.59683 0.26390
 C2504 C 0.66941 0.57796 0.26398
 C2505 C 0.70871 0.61941 0.25310
 C2506 C 0.70843 0.63209 0.27186
 C2507 C 0.71734 0.65147 0.27112
 C2508 C 0.72665 0.65839 0.25166
 C2509 C 0.72724 0.64582 0.23299
 C2510 C 0.71835 0.62642 0.23370
 C2511 C 0.73500 0.67863 0.25060
 C2512 C 0.74169 0.69570 0.24942
 H2513 H 0.70440 0.55050 0.23555
 H2514 H 0.72211 0.58363 0.23549
 H2515 H 0.67197 0.60965 0.27157
 H2516 H 0.65465 0.57646 0.27187
 H2517 H 0.70134 0.62701 0.28711
 H2518 H 0.71680 0.66112 0.28565
 H2519 H 0.73432 0.65112 0.21781
 H2520 H 0.71858 0.61711 0.21891
 C2521 C 0.15462 0.02612 0.74987
 C2522 C 0.16386 0.04202 0.74898
 C2523 C 0.17420 0.06138 0.74845
 C2524 C 0.19485 0.06277 0.74290
 C2525 C 0.20484 0.08168 0.74294
 C2526 C 0.19426 0.09938 0.74861
 C2527 C 0.17348 0.09781 0.75399
 C2528 C 0.16354 0.07893 0.75392
 C2529 C 0.20478 0.11945 0.74896
 C2530 C 0.20078 0.13346 0.76598
 C2531 C 0.21022 0.15260 0.76600
 C2532 C 0.22379 0.15796 0.74907
 C2533 C 0.22802 0.14409 0.73216
 C2534 C 0.21861 0.12491 0.73212
 C2535 C 0.23279 0.17794 0.74863
 C2536 C 0.23995 0.19484 0.74793
 H2537 H 0.20324 0.04925 0.73871
 H2538 H 0.22089 0.08242 0.73891
 H2539 H 0.16487 0.11121 0.75807
 H2540 H 0.14753 0.07801 0.75817
 H2541 H 0.19041 0.12957 0.77931
 H2542 H 0.20682 0.16328 0.77912
 H2543 H 0.23839 0.14819 0.71888
 H2544 H 0.22179 0.11453 0.71867
 C2545 C 0.34215 0.04638 0.25178
 C2546 C 0.33190 0.05969 0.24423
 C2547 C 0.32014 0.07644 0.23637
 C2548 C 0.29910 0.07667 0.23979
 C2549 C 0.28810 0.09409 0.23481
 C2550 C 0.29806 0.11154 0.22644
 C2551 C 0.31910 0.11087 0.22227
 C2552 C 0.33006 0.09344 0.22725
 C2553 C 0.28694 0.13084 0.22370
 C2554 C 0.29118 0.14387 0.20577
 C2555 C 0.28193 0.16284 0.20438
 C2556 C 0.26834 0.16895 0.22087
 C2557 C 0.26371 0.15592 0.23849
 C2558 C 0.27291 0.13699 0.23990
 C2559 C 0.26015 0.18906 0.22070
 C2560 C 0.25357 0.20600 0.22172
 H2561 H 0.29129 0.06362 0.24693
 H2562 H 0.27187 0.09407 0.23793
 H2563 H 0.32726 0.12412 0.21614
 H2564 H 0.34638 0.09349 0.22475
 H2565 H 0.30180 0.13950 0.19297
 H2566 H 0.28569 0.17288 0.19073
 H2567 H 0.25338 0.16062 0.25146
 H2568 H 0.26962 0.12750 0.25412
 C2569 C 0.84081 0.54633 0.75245
 C2570 C 0.83017 0.55936 0.74494
 C2571 C 0.81800 0.57582 0.73711
 C2572 C 0.80021 0.58089 0.74845
 C2573 C 0.78978 0.59850 0.74289
 C2574 C 0.79708 0.61132 0.72593
 C2575 C 0.81455 0.60568 0.71406
 C2576 C 0.82497 0.58805 0.71967
 C2577 C 0.78740 0.63122 0.72193
 C2578 C 0.79952 0.64876 0.71857
 C2579 C 0.79062 0.66785 0.71710
 C2580 C 0.76952 0.66966 0.71890
 C2581 C 0.75726 0.65227 0.72155
 C2582 C 0.76613 0.63314 0.72302
 C2583 C 0.76070 0.68948 0.71984
 C2584 C 0.75374 0.70622 0.72160
 H2585 H 0.79481 0.57164 0.76214
 H2586 H 0.77656 0.60255 0.75255
 H2587 H 0.82040 0.61512 0.70077
 H2588 H 0.83880 0.58432 0.71087
 H2589 H 0.81595 0.64785 0.71802
 H2590 H 0.80025 0.68126 0.71525
 H2591 H 0.74090 0.65354 0.72304
 H2592 H 0.75640 0.61990 0.72537
 C2593 C 0.97361 0.74884 0.15389
 C2594 C 0.95904 0.74762 0.16603
 C2595 C 0.94108 0.74698 0.17975
 C2596 C 0.93570 0.76408 0.19216
 C2597 C 0.91730 0.76427 0.20384
 C2598 C 0.90398 0.74734 0.20324
 C2599 C 0.90977 0.73003 0.19116
 C2600 C 0.92816 0.72989 0.17948
 C2601 C 0.88366 0.74806 0.21411
 C2602 C 0.87540 0.73080 0.22475
 C2603 C 0.85556 0.73094 0.23316
 C2604 C 0.84371 0.74833 0.23113
 C2605 C 0.85200 0.76580 0.22121
 C2606 C 0.87184 0.76570 0.21281
 C2607 C 0.82247 0.74750 0.23706
 C2608 C 0.80446 0.74615 0.24069
 H2609 H 0.94553 0.77744 0.19243
 H2610 H 0.91340 0.77773 0.21317
 H2611 H 0.89974 0.71687 0.19007
 H2612 H 0.93206 0.71664 0.16978
 H2613 H 0.88418 0.71708 0.22626
 H2614 H 0.84927 0.71728 0.24067
 H2615 H 0.84289 0.77927 0.21931
 H2616 H 0.87762 0.77915 0.20446
 C2617 C 0.47324 0.24775 0.65459
 C2618 C 0.45857 0.24639 0.66657
 C2619 C 0.44049 0.24557 0.68012
 C2620 C 0.43512 0.26243 0.69290
 C2621 C 0.41663 0.26248 0.70443
 C2622 C 0.40321 0.24566 0.70329
 C2623 C 0.40899 0.22857 0.69084
 C2624 C 0.42748 0.22856 0.67931
 C2625 C 0.38282 0.24628 0.71402
 C2626 C 0.37436 0.22886 0.72416
 C2627 C 0.35450 0.22900 0.73252
 C2628 C 0.34281 0.24654 0.73091
 C2629 C 0.35128 0.26414 0.72146
 C2630 C 0.37115 0.26404 0.71311
 C2631 C 0.32155 0.24579 0.73679
 C2632 C 0.30352 0.24457 0.74037
 H2633 H 0.44502 0.27573 0.69360
 H2634 H 0.41275 0.27576 0.71407
 H2635 H 0.39891 0.21549 0.68934
 H2636 H 0.43137 0.21550 0.66931
 H2637 H 0.38301 0.21503 0.72535
 H2638 H 0.34806 0.21524 0.73967
 H2639 H 0.34230 0.27773 0.71987
 H2640 H 0.37707 0.27762 0.70514
 C2641 C 0.46219 0.75161 0.84858
 C2642 C 0.44828 0.74792 0.83611
 C2643 C 0.43101 0.74467 0.82174
 C2644 C 0.42318 0.76105 0.80991
 C2645 C 0.40537 0.75864 0.79751
 C2646 C 0.39503 0.73975 0.79674
 C2647 C 0.40332 0.72321 0.80823
 C2648 C 0.42116 0.72567 0.82067
 C2649 C 0.37510 0.73779 0.78514
 C2650 C 0.35900 0.72644 0.79463
 C2651 C 0.33965 0.72633 0.78502
 C2652 C 0.33608 0.73749 0.76574
 C2653 C 0.35215 0.74824 0.75572
 C2654 C 0.37153 0.74835 0.76528
 C2655 C 0.31556 0.73960 0.75776
 C2656 C 0.29809 0.74211 0.75242
 H2657 H 0.43055 0.77587 0.81074
 H2658 H 0.39929 0.77178 0.78921
 H2659 H 0.39590 0.70842 0.80779
 H2660 H 0.42703 0.71288 0.82979
 H2661 H 0.36108 0.71839 0.81005
 H2662 H 0.32730 0.71812 0.79307
 H2663 H 0.34956 0.75703 0.74087
 H2664 H 0.38363 0.75701 0.75736
 C2665 C 0.96348 0.25226 0.34784
 C2666 C 0.94950 0.24864 0.33543
 C2667 C 0.93217 0.24541 0.32116
 C2668 C 0.92228 0.22643 0.32020
 C2669 C 0.90439 0.22396 0.30786
 C2670 C 0.89608 0.24049 0.29635
 C2671 C 0.90645 0.25936 0.29702
 C2672 C 0.92431 0.26178 0.30932
 C2673 C 0.87612 0.23850 0.28482
 C2674 C 0.87249 0.24900 0.26494
 C2675 C 0.85309 0.24882 0.25540
 C2676 C 0.83706 0.23806 0.26549
 C2677 C 0.84069 0.22698 0.28481
 C2678 C 0.86004 0.22716 0.29439
 C2679 C 0.81653 0.24003 0.25749
 C2680 C 0.79905 0.24238 0.25211
 H2681 H 0.92816 0.21366 0.32934
 H2682 H 0.89694 0.20918 0.30752
 H2683 H 0.90035 0.27249 0.28871
 H2684 H 0.93171 0.27659 0.31007
 H2685 H 0.88457 0.25763 0.25695
 H2686 H 0.85047 0.25755 0.24052
 H2687 H 0.82836 0.21876 0.29291
 H2688 H 0.86217 0.21916 0.30983
 C2689 C 0.03098 0.26081 0.34511
 C2690 C 0.04512 0.25964 0.33239
 C2691 C 0.06240 0.25870 0.31765
 C2692 C 0.06732 0.27523 0.30397
 C2693 C 0.08475 0.27484 0.29063
 C2694 C 0.09757 0.25789 0.29079
 C2695 C 0.09231 0.24123 0.30436
 C2696 C 0.07488 0.24166 0.31769
 C2697 C 0.11673 0.25783 0.27754
 C2698 C 0.12329 0.23994 0.26709
 C2699 C 0.14201 0.23952 0.25604
 C2700 C 0.15444 0.25696 0.25518
 C2701 C 0.14782 0.27499 0.26499
 C2702 C 0.12909 0.27545 0.27604
 C2703 C 0.17472 0.25583 0.24612
 C2704 C 0.19207 0.25450 0.23978
 H2705 H 0.05780 0.28853 0.30380
 H2706 H 0.08822 0.28782 0.28021
 H2707 H 0.10198 0.22808 0.30516
 H2708 H 0.07133 0.22883 0.32831
 H2709 H 0.11403 0.22621 0.26765
 H2710 H 0.14700 0.22545 0.24862
 H2711 H 0.15739 0.28853 0.26465
 H2712 H 0.12465 0.28940 0.28412
 C2713 C 0.53128 0.76004 0.84723
 C2714 C 0.54539 0.75882 0.83447
 C2715 C 0.56262 0.75784 0.81966
 C2716 C 0.57528 0.74093 0.81992
 C2717 C 0.59263 0.74048 0.80647
 C2718 C 0.59764 0.75699 0.79257
 C2719 C 0.58464 0.77380 0.79221
 C2720 C 0.56728 0.77421 0.80566
 C2721 C 0.61671 0.75694 0.77920
 C2722 C 0.62888 0.77466 0.77731
 C2723 C 0.64753 0.77424 0.76611
 C2724 C 0.65428 0.75616 0.75654
 C2725 C 0.64206 0.73859 0.75781
 C2726 C 0.62340 0.73897 0.76901
 C2727 C 0.67449 0.75514 0.74730
 C2728 C 0.69182 0.75394 0.74081
 H2729 H 0.57193 0.72823 0.83079
 H2730 H 0.60245 0.72745 0.80744
 H2731 H 0.58791 0.78665 0.78154
 H2732 H 0.55763 0.78740 0.80533
 H2733 H 0.62434 0.78867 0.78519
 H2734 H 0.65695 0.78788 0.76546
 H2735 H 0.64716 0.72447 0.75060
 H2736 H 0.61431 0.72514 0.76988
 C2737 C 0.54304 0.24417 0.65481
 C2738 C 0.55711 0.24209 0.66737
 C2739 C 0.57457 0.24087 0.68169
 C2740 C 0.58207 0.25852 0.69195
 C2741 C 0.60014 0.25809 0.70406
 C2742 C 0.61107 0.23996 0.70611
 C2743 C 0.60312 0.22214 0.69623
 C2744 C 0.58501 0.22262 0.68407
 C2745 C 0.63124 0.24006 0.71731
 C2746 C 0.64751 0.22904 0.70835
 C2747 C 0.66699 0.23075 0.71749
 C2748 C 0.67053 0.24345 0.73572
 C2749 C 0.65434 0.25395 0.74523
 C2750 C 0.63482 0.25222 0.73615
 C2751 C 0.69104 0.24690 0.74337
 C2752 C 0.70849 0.25011 0.74861
 H2753 H 0.57424 0.27278 0.69005
 H2754 H 0.60595 0.27215 0.71108
 H2755 H 0.61102 0.20788 0.69769
 H2756 H 0.57941 0.20886 0.67614
 H2757 H 0.64540 0.21976 0.69371
 H2758 H 0.67943 0.22265 0.70990
 H2759 H 0.65689 0.26385 0.75932
 H2760 H 0.62259 0.26066 0.74366
 C2761 C 0.04327 0.74484 0.15369
 C2762 C 0.05731 0.74263 0.16626
 C2763 C 0.07473 0.74124 0.18061
 C2764 C 0.08511 0.72293 0.18283
 C2765 C 0.10315 0.72228 0.19509
 C2766 C 0.11110 0.73998 0.20522
 C2767 C 0.10022 0.75816 0.20333
 C2768 C 0.08221 0.75876 0.19112
 C2769 C 0.13124 0.73993 0.21647
 C2770 C 0.13479 0.75187 0.23548
 C2771 C 0.15430 0.75348 0.24462
 C2772 C 0.17050 0.74309 0.23499
 C2773 C 0.16698 0.73060 0.21658
 C2774 C 0.14751 0.72901 0.20739
 C2775 C 0.19100 0.74651 0.24267
 C2776 C 0.20844 0.74976 0.24793
 H2777 H 0.07951 0.70927 0.17471
 H2778 H 0.11101 0.70799 0.19641
 H2779 H 0.10603 0.77214 0.21056
 H2780 H 0.07443 0.77306 0.18936
 H2781 H 0.12255 0.76025 0.24307
 H2782 H 0.15684 0.76323 0.25883
 H2783 H 0.17943 0.72260 0.20888
 H2784 H 0.14543 0.71991 0.19261
   
