data_POSCAR
  _audit_creation_date              2014-09-24
  _audit_creation_method            'ToBaCCo'
  _symmetry_space_group_name_H-M    'P1'
  _symmetry_Int_Tables_number       1
  _symmetry_cell_setting            triclinic
  loop_
  _symmetry_equiv_pos_as_xyz
 x,y,z
_cell_length_a 69.1534
_cell_length_b 69.1105
_cell_length_c 69.3117
_cell_angle_alpha 89.767200
_cell_angle_beta 89.776800
_cell_angle_gamma 90.076800
loop_
  _atom_site_label
  _atom_site_type_symbol
  _atom_site_fract_x
  _atom_site_fract_y
  _atom_site_fract_z
N1 N 0.20711 0.20911 0.20913
 N2 N 0.70843 0.70817 0.70819
 N3 N 0.29242 0.79238 0.70632
 N4 N 0.79040 0.29203 0.20736
 N5 N 0.79183 0.70668 0.29199
 N6 N 0.29232 0.20576 -0.20794
 N7 N 0.70858 0.29057 -0.20721
 N8 N 0.20923 0.79150 0.29069
 N9 N 0.45750 0.45664 0.45817
 N10 N -0.04227 -0.04391 0.95873
 N11 N 1.04217 0.54062 0.95751
 N12 N 0.54373 0.04252 0.45752
 N13 N -0.04231 0.04299 0.54191
 N14 N 0.45715 0.54230 0.04073
 N15 N 0.54006 -0.04217 0.04244
 N16 N 1.03937 0.46142 0.53939
 C17 C 0.40375 0.01055 0.22466
 H18 H 0.40456 0.02388 0.23274
 C19 C 0.41604 0.00762 0.20891
 H20 H 0.42625 0.01886 0.20497
 C21 C 0.38957 -0.02035 0.22032
 H22 H 0.37942 -0.03132 0.22497
 C23 C 0.40165 -0.02393 0.20454
 H24 H 0.40048 -0.03762 0.19709
 N25 N 0.39071 -0.00325 0.22990
 C26 C 0.34622 0.02856 0.26126
 H27 H 0.34600 0.02057 0.27471
 C28 C 0.33361 0.04409 0.25855
 H29 H 0.32376 0.04798 0.27008
 C30 C 0.35914 0.03283 0.22982
 H31 H 0.36887 0.02820 0.21853
 C32 C 0.34672 0.04839 0.22646
 H33 H 0.34726 0.05570 0.21262
 Zn34 Zn 0.37495 0.00177 0.25169
 N35 N 0.35881 0.02340 0.24708
 C36 C 0.39135 0.02368 0.28224
 N37 N 0.39169 0.00651 0.27273
 C38 C 0.40462 -0.00752 0.27744
 C39 C 0.41750 -0.00481 0.29266
 C40 C 0.40403 0.02705 0.29750
 C41 C 0.34472 -0.02363 0.24363
 C42 C 0.33179 -0.03888 0.24665
 C43 C 0.34738 -0.04546 0.27710
 C44 C 0.35992 -0.02998 0.27356
 N45 N 0.35853 -0.01957 0.25692
 H46 H 0.38137 0.03489 0.27795
 H47 H 0.40486 -0.02089 0.26937
 H48 H 0.42756 -0.01624 0.29623
 H49 H 0.40344 0.04079 0.30492
 H50 H 0.34376 -0.01494 0.23064
 H51 H 0.32097 -0.04188 0.23581
 H52 H 0.34877 -0.05358 0.29041
 H53 H 0.37065 -0.02625 0.28419
 C54 C 0.33375 0.05425 0.24095
 C55 C 0.41509 -0.00981 0.19860
 C56 C 0.33306 -0.05009 0.26354
 C57 C 0.41728 0.01266 0.30296
 C58 C 0.09481 -0.00999 0.72291
 H59 H 0.09445 -0.02353 0.73078
 C60 C 0.08228 -0.00703 0.70744
 H61 H 0.07234 -0.01845 0.70349
 C62 C 0.10808 0.02139 0.71882
 H63 H 0.11792 0.03255 0.72350
 C64 C 0.09573 0.02501 0.70333
 H65 H 0.09644 0.03891 0.69610
 N66 N 0.10757 0.00402 0.72811
 C67 C 0.15263 -0.02788 0.75851
 H68 H 0.15295 -0.01992 0.77192
 C69 C 0.16517 -0.04344 0.75572
 H70 H 0.17507 -0.04737 0.76714
 C71 C 0.13945 -0.03206 0.72730
 H72 H 0.12966 -0.02739 0.71613
 C73 C 0.15179 -0.04767 0.72387
 H74 H 0.15112 -0.05498 0.71010
 Zn75 Zn 0.12377 -0.00115 0.74948
 N76 N 0.13993 -0.02266 0.74450
 C77 C 0.10773 -0.02353 0.78021
 N78 N 0.10743 -0.00616 0.77092
 C79 C 0.09483 0.00796 0.77619
 C80 C 0.08222 0.00511 0.79173
 C81 C 0.09531 -0.02704 0.79577
 C82 C 0.15293 0.02542 0.74036
 C83 C 0.16566 0.04084 0.74318
 C84 C 0.15238 0.04490 0.77519
 C85 C 0.13984 0.02945 0.77172
 N86 N 0.14018 0.02021 0.75443
 H87 H 0.11746 -0.03478 0.77548
 H88 H 0.09464 0.02151 0.76832
 H89 H 0.07241 0.01661 0.79573
 H90 H 0.09586 -0.04095 0.80300
 H91 H 0.15315 0.01758 0.72688
 H92 H 0.17560 0.04478 0.73171
 H93 H 0.15181 0.05208 0.78904
 H94 H 0.12999 0.02477 0.78294
 C95 C 0.16483 -0.05361 0.73821
 C96 C 0.08265 0.01066 0.69738
 C97 C 0.16548 0.05084 0.76079
 C98 C 0.08239 -0.01258 0.80179
 C99 C 0.59433 0.49091 0.22212
 H100 H 0.59406 0.47739 0.23004
 C101 C 0.58180 0.49373 0.20662
 H102 H 0.57196 0.48222 0.20270
 C103 C 0.60737 0.52238 0.21797
 H104 H 0.61712 0.53363 0.22263
 C105 C 0.59502 0.52586 0.20244
 H106 H 0.59563 0.53975 0.19518
 N107 N 0.60696 0.50504 0.22731
 C108 C 0.65211 0.47345 0.25789
 H109 H 0.65229 0.48134 0.27134
 C110 C 0.66475 0.45796 0.25512
 H111 H 0.67458 0.45402 0.26660
 C112 C 0.63919 0.46934 0.22656
 H113 H 0.62945 0.47401 0.21534
 C114 C 0.65165 0.45382 0.22314
 H115 H 0.65112 0.44658 0.20933
 Zn116 Zn 0.62312 0.50004 0.24875
 N117 N 0.63948 0.47865 0.24382
 C118 C 0.60713 0.47756 0.27945
 N119 N 0.60672 0.49490 0.27011
 C120 C 0.59389 0.50888 0.27522
 C121 C 0.58114 0.50590 0.29061
 C122 C 0.59459 0.47393 0.29489
 C123 C 0.65213 0.52678 0.23972
 C124 C 0.66477 0.54226 0.24257
 C125 C 0.65128 0.54635 0.27450
 C126 C 0.63883 0.53083 0.27099
 N127 N 0.63933 0.52153 0.25374
 H128 H 0.61703 0.46641 0.27485
 H129 H 0.59363 0.52241 0.26731
 H130 H 0.57113 0.51729 0.29448
 H131 H 0.59522 0.46005 0.30215
 H132 H 0.65247 0.51890 0.22627
 H133 H 0.67476 0.54622 0.23116
 H134 H 0.65060 0.55356 0.28832
 H135 H 0.62894 0.52613 0.28216
 C136 C 0.66460 0.44788 0.23756
 C137 C 0.58206 0.51140 0.19652
 C138 C 0.66445 0.55230 0.26016
 C139 C 0.58139 0.48823 0.30071
 C140 C 0.90416 0.50912 0.72388
 H141 H 0.90443 0.52251 0.73191
 C142 C 0.91681 0.50649 0.70837
 H143 H 0.92674 0.51801 0.70454
 C144 C 0.89098 0.47780 0.71945
 H145 H 0.88113 0.46653 0.72400
 C146 C 0.90342 0.47452 0.70388
 H147 H 0.90278 0.46077 0.69649
 N148 N 0.89140 0.49499 0.72894
 C149 C 0.84610 0.52636 0.75961
 H150 H 0.84582 0.51837 0.77306
 C151 C 0.83349 0.54187 0.75683
 H152 H 0.82358 0.54574 0.76830
 C153 C 0.85922 0.53066 0.72826
 H154 H 0.86904 0.52606 0.71703
 C155 C 0.84680 0.54621 0.72482
 H156 H 0.84743 0.55354 0.71100
 Zn157 Zn 0.87508 0.49976 0.75039
 N158 N 0.85881 0.52123 0.74552
 C159 C 0.89094 0.52184 0.78115
 N160 N 0.89133 0.50460 0.77175
 C161 C 0.90402 0.49048 0.77683
 C162 C 0.91663 0.49319 0.79227
 C163 C 0.90336 0.52521 0.79662
 C164 C 0.84614 0.47308 0.74130
 C165 C 0.83356 0.45750 0.74411
 C166 C 0.84677 0.45319 0.77605
 C167 C 0.85917 0.46880 0.77258
 N168 N 0.85880 0.47824 0.75533
 H169 H 0.88114 0.53310 0.77658
 H170 H 0.90427 0.47705 0.76887
 H171 H 0.92652 0.48169 0.79610
 H172 H 0.90276 0.53901 0.80393
 H173 H 0.84590 0.48107 0.72785
 H174 H 0.82370 0.45359 0.73267
 H175 H 0.84737 0.44584 0.78986
 H176 H 0.86894 0.47343 0.78377
 C177 C 0.83375 0.55206 0.73925
 C178 C 0.91652 0.48901 0.69810
 C179 C 0.83379 0.44729 0.76168
 C180 C 0.91639 0.51074 0.80242
 C181 C 0.22386 0.40267 0.00767
 H182 H 0.23181 0.40293 0.02108
 C183 C 0.20839 0.41531 0.00489
 H184 H 0.20451 0.42523 0.01632
 C185 C 0.21960 0.38954 -0.02355
 H186 H 0.22420 0.37971 -0.03472
 C187 C 0.20408 0.40200 -0.02698
 H188 H 0.19677 0.40139 -0.04075
 N189 N 0.22898 0.38994 -0.00634
 C190 C 0.25928 0.34477 0.02559
 H191 H 0.27280 0.34445 0.01770
 C192 C 0.25637 0.33231 0.04124
 H193 H 0.26782 0.32246 0.04531
 C194 C 0.22788 0.35789 0.02952
 H195 H 0.21669 0.36765 0.02473
 C196 C 0.22432 0.34562 0.04520
 H197 H 0.21044 0.34630 0.05243
 Zn198 Zn 0.25033 0.37359 -0.00133
 N199 N 0.24523 0.35743 0.02023
 C200 C 0.28105 0.38959 0.02076
 N201 N 0.27183 0.38984 0.00346
 C202 C 0.27715 0.40244 -0.01072
 C203 C 0.29263 0.41511 -0.00799
 C204 C 0.29656 0.40207 0.02415
 C205 C 0.24108 0.34456 -0.02767
 C206 C 0.24386 0.33184 -0.04303
 C207 C 0.27603 0.34489 -0.04732
 C208 C 0.27259 0.35742 -0.03192
 N209 N 0.25525 0.35719 -0.02260
 H210 H 0.27629 0.37988 0.03207
 H211 H 0.26932 0.40259 -0.02421
 H212 H 0.29665 0.42494 -0.01953
 H213 H 0.30370 0.40159 0.03802
 H214 H 0.22756 0.34443 -0.01976
 H215 H 0.23232 0.32200 -0.04686
 H216 H 0.28991 0.34537 -0.05457
 H217 H 0.28388 0.36717 -0.02735
 C218 C 0.23871 0.33266 0.05132
 C219 C 0.19823 0.41506 -0.01262
 C220 C 0.26152 0.33192 -0.05311
 C221 C 0.30259 0.41503 0.00964
 C222 C 0.72348 0.09452 -0.00788
 H223 H 0.73150 0.09427 -0.02130
 C224 C 0.70791 0.08192 -0.00510
 H225 H 0.70404 0.07205 -0.01654
 C226 C 0.71910 0.10758 0.02338
 H227 H 0.72370 0.11737 0.03457
 C228 C 0.70350 0.09517 0.02682
 H229 H 0.69611 0.09578 0.04060
 N230 N 0.72858 0.10720 0.00616
 C231 C 0.75933 0.15248 -0.02557
 H232 H 0.77278 0.15275 -0.01766
 C233 C 0.75659 0.16508 -0.04111
 H234 H 0.76810 0.17497 -0.04508
 C235 C 0.72794 0.13938 -0.02965
 H236 H 0.71668 0.12959 -0.02495
 C237 C 0.72455 0.15179 -0.04523
 H238 H 0.71073 0.15117 -0.05248
 Zn239 Zn 0.75005 0.12354 0.00118
 N240 N 0.74520 0.13978 -0.02032
 C241 C 0.78091 0.10761 -0.02092
 N242 N 0.77155 0.10729 -0.00363
 C243 C 0.77674 0.09467 0.01052
 C244 C 0.79225 0.08205 0.00777
 C245 C 0.79644 0.09517 -0.02434
 C246 C 0.74065 0.15254 0.02752
 C247 C 0.74330 0.16525 0.04289
 C248 C 0.77537 0.15216 0.04730
 C249 C 0.77205 0.13963 0.03189
 N250 N 0.75482 0.13989 0.02250
 H251 H 0.77625 0.11734 -0.03220
 H252 H 0.76881 0.09447 0.02401
 H253 H 0.79617 0.07220 0.01929
 H254 H 0.80370 0.09571 -0.03820
 H255 H 0.72722 0.15270 0.01956
 H256 H 0.73176 0.17512 0.04667
 H257 H 0.78917 0.15166 0.05460
 H258 H 0.78335 0.12986 0.02736
 C259 C 0.73902 0.16482 -0.05120
 C260 C 0.69764 0.08217 0.01243
 C261 C 0.76085 0.16516 0.05303
 C262 C 0.80235 0.08220 -0.00986
 C263 C 0.21338 0.61056 0.49065
 H264 H 0.21392 0.62022 0.47836
 C265 C 0.19729 0.59860 0.49337
 H266 H 0.18547 0.59935 0.48320
 C267 C 0.22831 0.59750 0.51852
 H268 H 0.24061 0.59703 0.52810
 C269 C 0.21243 0.58546 0.52192
 H270 H 0.21264 0.57575 0.53422
 N271 N 0.22841 0.60989 0.50323
 C272 C 0.25832 0.63953 0.46126
 H273 H 0.26930 0.62849 0.46042
 C274 C 0.25535 0.65178 0.44547
 H275 H 0.26403 0.64990 0.43257
 C276 C 0.23403 0.65579 0.47911
 H277 H 0.22576 0.65719 0.49231
 C278 C 0.23084 0.66857 0.46381
 H279 H 0.21999 0.67975 0.46531
 Zn280 Zn 0.25072 0.62529 0.49938
 N281 N 0.24749 0.64155 0.47756
 C282 C 0.27097 0.59546 0.48101
 N283 N 0.27181 0.60813 0.49594
 C284 C 0.28688 0.60791 0.50850
 C285 C 0.30219 0.59501 0.50589
 C286 C 0.28607 0.58248 0.47772
 C287 C 0.24183 0.64226 0.53564
 C288 C 0.24472 0.65475 0.55115
 C289 C 0.27423 0.66588 0.53598
 C290 C 0.27066 0.65333 0.52065
 N291 N 0.25484 0.64161 0.52089
 H292 H 0.25856 0.59556 0.47154
 H293 H 0.28702 0.61759 0.52068
 H294 H 0.31411 0.59518 0.51598
 H295 H 0.28519 0.57268 0.46560
 H296 H 0.22903 0.63330 0.53531
 H297 H 0.23420 0.65498 0.56276
 H298 H 0.28698 0.67498 0.53555
 H299 H 0.28055 0.65285 0.50853
 C300 C 0.24148 0.66654 0.44665
 C301 C 0.19665 0.58588 0.50923
 C302 C 0.26116 0.66669 0.55151
 C303 C 0.30200 0.58219 0.49022
 C304 C 0.72452 0.90346 0.50812
 H305 H 0.73245 0.90362 0.52155
 C306 C 0.70910 0.91617 0.50537
 H307 H 0.70524 0.92605 0.51683
 C308 C 0.72028 0.89050 0.47683
 H309 H 0.72487 0.88072 0.46561
 C310 C 0.70482 0.90304 0.47342
 H311 H 0.69755 0.90252 0.45962
 N312 N 0.72963 0.89078 0.49405
 C313 C 0.75998 0.84537 0.52560
 H314 H 0.77346 0.84508 0.51764
 C315 C 0.75713 0.83278 0.54116
 H316 H 0.76858 0.82286 0.54508
 C317 C 0.72864 0.85854 0.52983
 H318 H 0.71744 0.86836 0.52518
 C319 C 0.72514 0.84613 0.54542
 H320 H 0.71130 0.84678 0.55274
 Zn321 Zn 0.75097 0.87438 0.49895
 N322 N 0.74593 0.85810 0.52043
 C323 C 0.78176 0.89021 0.52104
 N324 N 0.77252 0.89056 0.50376
 C325 C 0.77784 0.90322 0.48963
 C326 C 0.79334 0.91586 0.49241
 C327 C 0.79729 0.90265 0.52448
 C328 C 0.74158 0.84548 0.47254
 C329 C 0.74427 0.83280 0.45713
 C330 C 0.77644 0.84580 0.45274
 C331 C 0.77309 0.85829 0.46819
 N332 N 0.75579 0.85806 0.47759
 H333 H 0.77699 0.88045 0.53230
 H334 H 0.77000 0.90346 0.47615
 H335 H 0.79735 0.92574 0.48092
 H336 H 0.80444 0.90209 0.53834
 H337 H 0.72809 0.84534 0.48050
 H338 H 0.73269 0.82299 0.45332
 H339 H 0.79030 0.84627 0.44543
 H340 H 0.78442 0.86801 0.47274
 C341 C 0.73953 0.83308 0.55134
 C342 C 0.69899 0.91605 0.48783
 C343 C 0.76189 0.83286 0.44698
 C344 C 0.80331 0.91568 0.51004
 C345 C 0.00710 0.22600 0.40414
 H346 H 0.02052 0.23406 0.40425
 C347 C 0.00441 0.21057 0.41694
 H348 H 0.01591 0.20684 0.42683
 C349 C -0.02422 0.22138 0.39121
 H350 H -0.03547 0.22582 0.38139
 C351 C -0.02757 0.20591 0.40383
 H352 H -0.04135 0.19848 0.40334
 N353 N -0.00700 0.23091 0.39143
 C354 C 0.02446 0.26105 0.34560
 H355 H 0.01643 0.27447 0.34508
 C356 C 0.04002 0.25817 0.33306
 H357 H 0.04389 0.26953 0.32295
 C358 C 0.02883 0.22991 0.35929
 H359 H 0.02423 0.21879 0.36930
 C360 C 0.04443 0.22637 0.34695
 H361 H 0.05181 0.21259 0.34783
 Zn362 Zn -0.00215 0.25218 0.37477
 N363 N 0.01935 0.24713 0.35857
 C364 C 0.01980 0.28356 0.38982
 N365 N 0.00264 0.27394 0.39057
 C366 C -0.01146 0.27916 0.40323
 C367 C -0.00883 0.29497 0.41542
 C368 C 0.02309 0.29943 0.40179
 C369 C -0.02872 0.24246 0.34609
 C370 C -0.04419 0.24504 0.33346
 C371 C -0.04851 0.27726 0.34613
 C372 C -0.03301 0.27403 0.35858
 N373 N -0.02360 0.25675 0.35849
 H374 H 0.03106 0.27889 0.38006
 H375 H -0.02484 0.27104 0.40376
 H376 H -0.02033 0.29892 0.42528
 H377 H 0.03683 0.30691 0.40089
 H378 H -0.02075 0.22900 0.34606
 H379 H -0.04805 0.23341 0.32379
 H380 H -0.05582 0.29110 0.34650
 H381 H -0.02841 0.28542 0.36815
 C382 C 0.05028 0.24065 0.33365
 C383 C -0.01311 0.20025 0.41686
 C384 C -0.05434 0.26263 0.33339
 C385 C 0.00863 0.30538 0.41477
 C386 C -0.00832 0.72107 0.09651
 H387 H -0.02164 0.72926 0.09617
 C388 C -0.00568 0.70558 0.08392
 H389 H -0.01712 0.70192 0.07396
 C390 C 0.02284 0.71625 0.10978
 H391 H 0.03402 0.72063 0.11968
 C392 C 0.02614 0.70071 0.09738
 H393 H 0.03983 0.69317 0.09808
 N394 N 0.00575 0.72596 0.10925
 C395 C -0.02504 0.75676 0.15478
 H396 H -0.01690 0.77014 0.15504
 C397 C -0.04053 0.75403 0.16748
 H398 H -0.04424 0.76546 0.17746
 C399 C -0.02977 0.72557 0.14154
 H400 H -0.02537 0.71438 0.13163
 C401 C -0.04530 0.72218 0.15406
 H402 H -0.05280 0.70844 0.15341
 Zn403 Zn 0.00119 0.74751 0.12538
 N404 N -0.02015 0.74274 0.14195
 C405 C -0.02085 0.77867 0.10995
 N406 N -0.00376 0.76898 0.10906
 C407 C 0.01001 0.77382 0.09583
 C408 C 0.00711 0.78933 0.08320
 C409 C -0.02439 0.79422 0.09753
 C410 C 0.02730 0.73855 0.15469
 C411 C 0.04301 0.74110 0.16701
 C412 C 0.04940 0.77187 0.15157
 C413 C 0.03347 0.76878 0.13964
 N414 N 0.02295 0.75220 0.14122
 H415 H -0.03186 0.77428 0.12016
 H416 H 0.02330 0.76561 0.09514
 H417 H 0.01834 0.79298 0.07288
 H418 H -0.03807 0.80176 0.09856
 H419 H 0.01853 0.72561 0.15581
 H420 H 0.04627 0.72998 0.17755
 H421 H 0.05761 0.78513 0.15002
 H422 H 0.02953 0.77970 0.12920
 C423 C -0.05094 0.73656 0.16719
 C424 C 0.01175 0.69515 0.08425
 C425 C 0.05437 0.75791 0.16548
 C426 C -0.01027 0.79980 0.08397
 C427 C 0.49224 0.22262 0.59663
 H428 H 0.47876 0.23054 0.59648
 C429 C 0.49505 0.20725 0.58391
 H430 H 0.48357 0.20343 0.57405
 C431 C 0.52362 0.21832 0.60954
 H432 H 0.53484 0.22288 0.61931
 C433 C 0.52708 0.20292 0.59701
 H434 H 0.54093 0.19565 0.59751
 N435 N 0.50632 0.22767 0.60928
 C436 C 0.47477 0.25775 0.65478
 H437 H 0.48276 0.27122 0.65512
 C438 C 0.45923 0.25484 0.66737
 H439 H 0.45533 0.26622 0.67734
 C440 C 0.47048 0.22653 0.64147
 H441 H 0.47511 0.21540 0.63159
 C442 C 0.45490 0.22296 0.65388
 H443 H 0.44756 0.20913 0.65317
 Zn444 Zn 0.50138 0.24895 0.62570
 N445 N 0.47991 0.24380 0.64198
 C446 C 0.47922 0.28003 0.61024
 N447 N 0.49646 0.27061 0.60964
 C448 C 0.51052 0.27589 0.59690
 C449 C 0.50773 0.29155 0.58444
 C450 C 0.47578 0.29575 0.59800
 C451 C 0.52798 0.23951 0.65447
 C452 C 0.54344 0.24223 0.66707
 C453 C 0.54766 0.27444 0.65404
 C454 C 0.53216 0.27106 0.64162
 N455 N 0.52282 0.25373 0.64191
 H456 H 0.46800 0.27530 0.62007
 H457 H 0.52397 0.26791 0.59648
 H458 H 0.51919 0.29555 0.57450
 H459 H 0.46197 0.30306 0.59877
 H460 H 0.52006 0.22600 0.65465
 H461 H 0.54734 0.23065 0.67688
 H462 H 0.55491 0.28832 0.65352
 H463 H 0.52753 0.28239 0.63192
 C464 C 0.44902 0.23725 0.66700
 C465 C 0.51266 0.19714 0.58401
 C466 C 0.55353 0.25988 0.66695
 C467 C 0.49018 0.30175 0.58491
 C468 C 0.50818 0.72488 0.90314
 H469 H 0.52158 0.73298 0.90353
 C470 C 0.50533 0.70933 0.91574
 H471 H 0.51668 0.70554 0.92577
 C472 C 0.47707 0.72033 0.88969
 H473 H 0.46597 0.72485 0.87973
 C474 C 0.47356 0.70473 0.90210
 H475 H 0.45981 0.69728 0.90135
 N476 N 0.49426 0.72990 0.89027
 C477 C 0.52652 0.76067 0.84545
 H478 H 0.51863 0.77417 0.84508
 C479 C 0.54219 0.75785 0.83302
 H480 H 0.54629 0.76935 0.82316
 C481 C 0.53040 0.72922 0.85859
 H482 H 0.52556 0.71796 0.86832
 C483 C 0.54610 0.72575 0.84636
 H484 H 0.55331 0.71187 0.84705
 Zn485 Zn 0.49937 0.75141 0.87402
 N486 N 0.52110 0.74654 0.85807
 C487 C 0.52129 0.78224 0.89016
 N488 N 0.50399 0.77286 0.89029
 C489 C 0.48968 0.77795 0.90277
 C490 C 0.49229 0.79336 0.91547
 C491 C 0.52456 0.79768 0.90267
 C492 C 0.47334 0.74220 0.84473
 C493 C 0.45813 0.74499 0.83183
 C494 C 0.45347 0.77696 0.84502
 C495 C 0.46873 0.77353 0.85771
 N496 N 0.47818 0.75628 0.85749
 H497 H 0.53269 0.77765 0.88053
 H498 H 0.47619 0.77000 0.90283
 H499 H 0.48065 0.79720 0.92521
 H500 H 0.53843 0.80496 0.90229
 H501 H 0.48134 0.72876 0.84462
 H502 H 0.45450 0.73353 0.82188
 H503 H 0.44612 0.79078 0.84548
 H504 H 0.47312 0.78475 0.86757
 C505 C 0.55224 0.74019 0.83338
 C506 C 0.48783 0.69899 0.91531
 C507 C 0.44794 0.76256 0.83187
 C508 C 0.50993 0.80348 0.91552
 C509 C 0.16056 0.21841 0.24616
 N510 N 0.16835 0.20050 0.24431
 N511 N 0.18325 0.19752 0.23244
 C512 C 0.19096 0.21234 0.22199
 N513 N 0.18313 0.23026 0.22390
 N514 N 0.16821 0.23324 0.23573
 C515 C 0.14412 0.22170 0.25921
 N516 N 0.13579 0.23944 0.26041
 N517 N 0.12085 0.24242 0.27223
 C518 C 0.11373 0.22780 0.28330
 N519 N 0.12207 0.21007 0.28211
 N520 N 0.13698 0.20707 0.27027
 C521 C 0.09728 0.23111 0.29634
 N522 N 0.09068 0.21674 0.30803
 N523 N 0.07578 0.21977 0.31988
 C524 C 0.06686 0.23727 0.32047
 N525 N 0.07350 0.25162 0.30872
 N526 N 0.08843 0.24861 0.29691
 C527 C 0.66222 0.71769 0.74558
 N528 N 0.67001 0.73252 0.73527
 N529 N 0.68482 0.72948 0.72332
 C530 C 0.69240 0.71147 0.72118
 N531 N 0.68455 0.69665 0.73152
 N532 N 0.66976 0.69970 0.74350
 C533 C 0.64588 0.72106 0.75874
 N534 N 0.63857 0.70639 0.76964
 N535 N 0.62374 0.70944 0.78157
 C536 C 0.61564 0.72727 0.78300
 N537 N 0.62294 0.74194 0.77209
 N538 N 0.63780 0.73889 0.76019
 C539 C 0.59925 0.73063 0.79609
 N540 N 0.59062 0.74823 0.79689
 N541 N 0.57571 0.75126 0.80872
 C542 C 0.56885 0.73682 0.82024
 N543 N 0.57755 0.71922 0.81941
 N544 N 0.59244 0.71617 0.80756
 C545 C 0.33964 0.78403 0.74241
 N546 N 0.33273 0.76929 0.73154
 N547 N 0.31766 0.77200 0.71992
 C548 C 0.30891 0.78956 0.71871
 N549 N 0.31595 0.80432 0.72953
 N550 N 0.33100 0.80160 0.74117
 C551 C 0.35604 0.78095 0.75547
 N552 N 0.36245 0.79548 0.76692
 N553 N 0.37716 0.79261 0.77896
 C554 C 0.38600 0.77511 0.77997
 N555 N 0.37962 0.76059 0.76849
 N556 N 0.36489 0.76345 0.75647
 C557 C 0.40211 0.77190 0.79335
 N558 N 0.41123 0.75454 0.79405
 N559 N 0.42578 0.75159 0.80625
 C560 C 0.43177 0.76587 0.81826
 N561 N 0.42261 0.78324 0.81752
 N562 N 0.40807 0.78620 0.80531
 C563 C -0.16343 0.28330 0.24471
 N564 N -0.17107 0.26829 0.23472
 N565 N -0.18585 0.27109 0.22277
 C566 C -0.19356 0.28901 0.22030
 N567 N -0.18585 0.30401 0.23031
 N568 N -0.17110 0.30121 0.24229
 C569 C -0.14716 0.28022 0.25792
 N570 N -0.14006 0.29507 0.26854
 N571 N -0.12533 0.29227 0.28055
 C572 C -0.11712 0.27452 0.28236
 N573 N -0.12421 0.25967 0.27173
 N574 N -0.13897 0.26247 0.25974
 C575 C -0.10087 0.27144 0.29559
 N576 N -0.09213 0.25390 0.29680
 N577 N -0.07737 0.25112 0.30878
 C578 C -0.07077 0.26574 0.32005
 N579 N -0.07957 0.28327 0.31881
 N580 N -0.09431 0.28607 0.30681
 C581 C -0.16140 0.71547 0.25500
 N582 N -0.16934 0.69761 0.25711
 N583 N -0.18430 0.69479 0.26896
 C584 C -0.19195 0.70973 0.27914
 N585 N -0.18398 0.72760 0.27696
 N586 N -0.16900 0.73041 0.26515
 C587 C -0.14489 0.71858 0.24196
 N588 N -0.13643 0.73627 0.24050
 N589 N -0.12144 0.73910 0.22868
 C590 C -0.11440 0.72436 0.21785
 N591 N -0.12287 0.70667 0.21929
 N592 N -0.13783 0.70383 0.23114
 C593 C -0.09792 0.72750 0.20477
 N594 N -0.09144 0.71302 0.19328
 N595 N -0.07653 0.71589 0.18137
 C596 C -0.06749 0.73335 0.18050
 N597 N -0.07400 0.74781 0.19204
 N598 N -0.08893 0.74495 0.20393
 C599 C 0.33884 0.21497 0.75486
 N600 N 0.33116 0.22984 0.76505
 N601 N 0.31625 0.22689 0.77694
 C602 C 0.30846 0.20895 0.77915
 N603 N 0.31621 0.19408 0.76893
 N604 N 0.33109 0.19704 0.75701
 C605 C 0.35527 0.21825 0.74176
 N606 N 0.36244 0.20357 0.73092
 N607 N 0.37734 0.20657 0.71902
 C608 C 0.38563 0.22434 0.71756
 N609 N 0.37847 0.23900 0.72841
 N610 N 0.36355 0.23602 0.74028
 C611 C 0.40206 0.22766 0.70446
 N612 N 0.41087 0.24520 0.70365
 N613 N 0.42577 0.24823 0.69178
 C614 C 0.43246 0.23385 0.68023
 N615 N 0.42359 0.21630 0.68107
 N616 N 0.40871 0.21325 0.69297
 C617 C 0.66245 0.28146 0.75552
 N618 N 0.67013 0.26652 0.76567
 N619 N 0.68490 0.26944 0.77760
 C620 C 0.69255 0.28741 0.77988
 N621 N 0.68479 0.30234 0.76971
 N622 N 0.67005 0.29942 0.75775
 C623 C 0.64620 0.27824 0.74232
 N624 N 0.63907 0.29302 0.73154
 N625 N 0.62436 0.29010 0.71954
 C626 C 0.61622 0.27230 0.71791
 N627 N 0.62334 0.25752 0.72870
 N628 N 0.63807 0.26044 0.74068
 C629 C 0.59999 0.26908 0.70469
 N630 N 0.59132 0.25149 0.70366
 N631 N 0.57658 0.24858 0.69170
 C632 C 0.56994 0.26313 0.68026
 N633 N 0.57867 0.28072 0.68132
 N634 N 0.59339 0.28365 0.69331
 C635 C 0.16473 0.77956 0.25220
 N636 N 0.16576 0.77020 0.26941
 N637 N 0.18009 0.77395 0.28165
 C638 C 0.19398 0.78719 0.27716
 N639 N 0.19299 0.79638 0.25982
 N640 N 0.17863 0.79269 0.24761
 C641 C 0.14863 0.77588 0.23895
 N642 N 0.14658 0.78660 0.22263
 N643 N 0.13174 0.78356 0.21082
 C644 C 0.11843 0.76965 0.21487
 N645 N 0.12052 0.75887 0.23114
 N646 N 0.13533 0.76195 0.24299
 C647 C 0.10193 0.76649 0.20197
 N648 N 0.08935 0.75174 0.20526
 N649 N 0.07430 0.74898 0.19365
 C650 C 0.07118 0.76090 0.17834
 N651 N 0.08380 0.77566 0.17509
 N652 N 0.09889 0.77838 0.18666
 C653 C 0.24456 0.16301 0.21871
 N654 N 0.24232 0.17050 0.20073
 N655 N 0.23029 0.18522 0.19766
 C656 C 0.22006 0.19308 0.21246
 N657 N 0.22234 0.18555 0.23045
 N658 N 0.23433 0.17080 0.23352
 C659 C 0.25785 0.14680 0.22207
 N660 N 0.25951 0.13876 0.23989
 N661 N 0.27158 0.12405 0.24292
 C662 C 0.28246 0.11689 0.22825
 N663 N 0.28081 0.12495 0.21044
 N664 N 0.26871 0.13963 0.20740
 C665 C 0.29578 0.10069 0.23157
 N666 N 0.30723 0.09409 0.21709
 N667 N 0.31930 0.07939 0.22009
 C668 C 0.32038 0.07067 0.23766
 N669 N 0.30888 0.07732 0.25213
 N670 N 0.29683 0.09205 0.24915
 C671 C 0.74553 0.66171 0.71740
 N672 N 0.74334 0.66934 0.69947
 N673 N 0.73144 0.68420 0.69652
 C674 C 0.72128 0.69203 0.71138
 N675 N 0.72352 0.68435 0.72932
 N676 N 0.73539 0.66947 0.73227
 C677 C 0.75866 0.64534 0.72065
 N678 N 0.76022 0.63716 0.73841
 N679 N 0.77213 0.62231 0.74136
 C680 C 0.78295 0.61513 0.72666
 N681 N 0.78140 0.62332 0.70890
 N682 N 0.76946 0.63814 0.70594
 C683 C 0.79611 0.59878 0.72992
 N684 N 0.80755 0.59216 0.71544
 N685 N 0.81951 0.57735 0.71841
 C686 C 0.82046 0.56855 0.73595
 N687 N 0.80896 0.57522 0.75041
 N688 N 0.79703 0.59005 0.74746
 C689 C 0.74581 0.33709 0.78361
 N690 N 0.73572 0.32936 0.76875
 N691 N 0.72382 0.31446 0.77169
 C692 C 0.72150 0.30671 0.78960
 N693 N 0.73162 0.31449 0.80446
 N694 N 0.74355 0.32938 0.80151
 C695 C 0.75894 0.35351 0.78036
 N696 N 0.76967 0.36072 0.79504
 N697 N 0.78158 0.37561 0.79208
 C698 C 0.78317 0.38387 0.77434
 N699 N 0.77242 0.37668 0.75966
 N700 N 0.76054 0.36176 0.76261
 C701 C 0.79628 0.40031 0.77107
 N702 N 0.79723 0.40909 0.75355
 N703 N 0.80911 0.42401 0.75058
 C704 C 0.82054 0.43071 0.76500
 N705 N 0.81957 0.42186 0.78253
 N706 N 0.80766 0.40697 0.78551
 C707 C 0.24472 -0.16014 0.28444
 N708 N 0.22791 -0.16145 0.27450
 N709 N 0.21645 -0.17683 0.27660
 C710 C 0.22138 -0.19157 0.28864
 N711 N 0.23819 -0.19015 0.29866
 N712 N 0.24962 -0.17474 0.29662
 C713 C 0.25756 -0.14339 0.28179
 N714 N 0.27380 -0.14149 0.29258
 N715 N 0.28562 -0.12647 0.28993
 C716 C 0.28169 -0.11284 0.27634
 N717 N 0.26545 -0.11474 0.26556
 N718 N 0.25359 -0.12972 0.26826
 C719 C 0.29489 -0.09647 0.27317
 N720 N 0.29188 -0.08384 0.25845
 N721 N 0.30399 -0.06912 0.25541
 C722 C 0.31955 -0.06641 0.26700
 N723 N 0.32250 -0.07905 0.28177
 N724 N 0.31043 -0.09381 0.28477
 C725 C 0.25370 -0.16264 0.71609
 N726 N 0.26495 -0.16946 0.73060
 N727 N 0.27730 -0.18390 0.72750
 C728 C 0.27893 -0.19207 0.70976
 N729 N 0.26760 -0.18524 0.69528
 N730 N 0.25523 -0.17081 0.69838
 C731 C 0.24023 -0.14658 0.71945
 N732 N 0.22869 -0.14001 0.70504
 N733 N 0.21659 -0.12534 0.70806
 C734 C 0.21560 -0.11668 0.72558
 N735 N 0.22713 -0.12325 0.73999
 N736 N 0.23922 -0.13794 0.73698
 C737 C 0.20237 -0.10040 0.72887
 N738 N 0.20187 -0.09133 0.74619
 N739 N 0.18996 -0.07650 0.74915
 C740 C 0.17806 -0.07015 0.73491
 N741 N 0.17858 -0.07928 0.71759
 N742 N 0.19051 -0.09410 0.71462
 C743 C 0.75290 0.33823 0.21621
 N744 N 0.76305 0.33058 0.23112
 N745 N 0.77503 0.31577 0.22828
 C746 C 0.77737 0.30805 0.21043
 N747 N 0.76719 0.31575 0.19552
 N748 N 0.75518 0.33054 0.19836
 C749 C 0.73971 0.35456 0.21936
 N750 N 0.72895 0.36173 0.20463
 N751 N 0.71699 0.37655 0.20750
 C752 C 0.71538 0.38477 0.22520
 N753 N 0.72616 0.37761 0.23991
 N754 N 0.73809 0.36277 0.23705
 C755 C 0.70223 0.40112 0.22838
 N756 N 0.70124 0.40984 0.24586
 N757 N 0.68932 0.42468 0.24876
 C758 C 0.67789 0.43138 0.23431
 N759 N 0.67890 0.42261 0.21682
 N760 N 0.69084 0.40779 0.21390
 C761 C 0.75385 0.66095 0.28259
 N762 N 0.76431 0.66858 0.26780
 N763 N 0.77645 0.68324 0.27081
 C764 C 0.77865 0.69081 0.28873
 N765 N 0.76817 0.68311 0.30352
 N766 N 0.75600 0.66848 0.30050
 C767 C 0.74046 0.64479 0.27926
 N768 N 0.72940 0.63767 0.29388
 N769 N 0.71726 0.62301 0.29085
 C770 C 0.71576 0.61493 0.27309
 N771 N 0.72683 0.62205 0.25848
 N772 N 0.73895 0.63673 0.26150
 C773 C 0.70242 0.59874 0.26975
 N774 N 0.70156 0.59012 0.25221
 N775 N 0.68951 0.57540 0.24918
 C776 C 0.67782 0.56872 0.26355
 N777 N 0.67871 0.57740 0.28108
 N778 N 0.69078 0.59210 0.28413
 C779 C 0.25471 0.15969 0.78284
 N780 N 0.26504 0.16740 0.76800
 N781 N 0.27708 0.18216 0.77095
 C782 C 0.27929 0.18976 0.78887
 N783 N 0.26893 0.18198 0.80370
 N784 N 0.25687 0.16725 0.80074
 C785 C 0.24141 0.14345 0.77957
 N786 N 0.23046 0.13627 0.79424
 N787 N 0.21837 0.12156 0.79126
 C788 C 0.21682 0.11347 0.77351
 N789 N 0.22780 0.12064 0.75885
 N790 N 0.23985 0.13538 0.76182
 C791 C 0.20352 0.09725 0.77023
 N792 N 0.20257 0.08865 0.75269
 N793 N 0.19051 0.07392 0.74971
 C794 C 0.17890 0.06722 0.76412
 N795 N 0.17987 0.07588 0.78166
 N796 N 0.19195 0.09059 0.78466
 C797 C 0.21640 0.24595 0.16235
 N798 N 0.19842 0.24374 0.16997
 N799 N 0.19544 0.23195 0.18495
 C800 C 0.21033 0.22193 0.19292
 N801 N 0.22832 0.22420 0.18527
 N802 N 0.23129 0.23596 0.17027
 C803 C 0.21969 0.25889 0.14580
 N804 N 0.23752 0.26040 0.13765
 N805 N 0.24051 0.27211 0.12261
 C806 C 0.22580 0.28276 0.11520
 N807 N 0.20798 0.28126 0.12337
 N808 N 0.20498 0.26953 0.13838
 C809 C 0.22913 0.29567 0.09863
 N810 N 0.21466 0.30698 0.09175
 N811 N 0.21771 0.31871 0.07674
 C812 C 0.23531 0.31958 0.06800
 N813 N 0.24976 0.30822 0.07492
 N814 N 0.24673 0.29651 0.08995
 C815 C 0.71759 0.74523 0.66157
 N816 N 0.73248 0.73507 0.66927
 N817 N 0.72954 0.72322 0.68421
 C818 C 0.71161 0.72103 0.69201
 N819 N 0.69673 0.73122 0.68424
 N820 N 0.69966 0.74310 0.66933
 C821 C 0.72083 0.75832 0.64512
 N822 N 0.70613 0.76913 0.63794
 N823 N 0.70908 0.78102 0.62303
 C824 C 0.72684 0.78250 0.61474
 N825 N 0.74155 0.77168 0.62191
 N826 N 0.73860 0.75982 0.63684
 C827 C 0.73011 0.79560 0.59830
 N828 N 0.74766 0.79646 0.58951
 N829 N 0.75063 0.80833 0.57460
 C830 C 0.73619 0.81984 0.56791
 N831 N 0.71864 0.81895 0.57676
 N832 N 0.71565 0.80705 0.59165
 C833 C 0.78299 0.74394 0.33821
 N834 N 0.80093 0.74148 0.33063
 N835 N 0.80377 0.72952 0.31587
 C836 C 0.78876 0.71957 0.30807
 N837 N 0.77080 0.72206 0.31569
 N838 N 0.76797 0.73399 0.33048
 C839 C 0.77986 0.75716 0.35446
 N840 N 0.76206 0.75899 0.36258
 N841 N 0.75922 0.77100 0.37731
 C842 C 0.77407 0.78166 0.38442
 N843 N 0.79186 0.77983 0.37628
 N844 N 0.79471 0.76779 0.36158
 C845 C 0.77093 0.79493 0.40063
 N846 N 0.78554 0.80623 0.40718
 N847 N 0.78267 0.81828 0.42186
 C848 C 0.76509 0.81948 0.43061
 N849 N 0.75050 0.80813 0.42402
 N850 N 0.75335 0.79610 0.40931
 C851 C 0.28324 0.24298 -0.16175
 N852 N 0.26830 0.23291 -0.16944
 N853 N 0.27121 0.22099 -0.18423
 C854 C 0.28918 0.21863 -0.19188
 N855 N 0.30411 0.22872 -0.18411
 N856 N 0.30120 0.24067 -0.16935
 C857 C 0.28002 0.25619 -0.14551
 N858 N 0.29480 0.26693 -0.13839
 N859 N 0.29187 0.27896 -0.12369
 C860 C 0.27406 0.28067 -0.11556
 N861 N 0.25929 0.26991 -0.12267
 N862 N 0.26221 0.25791 -0.13738
 C863 C 0.27083 0.29394 -0.09937
 N864 N 0.25323 0.29504 -0.09072
 N865 N 0.25029 0.30707 -0.07603
 C866 C 0.26481 0.31851 -0.06944
 N867 N 0.28241 0.31738 -0.07815
 N868 N 0.28537 0.30533 -0.09282
 C869 C 0.71757 0.25316 -0.16093
 N870 N 0.73248 0.26343 -0.16862
 N871 N 0.72961 0.27539 -0.18345
 C872 C 0.71170 0.27759 -0.19115
 N873 N 0.69679 0.26729 -0.18341
 N874 N 0.69967 0.25530 -0.16860
 C875 C 0.72075 0.23997 -0.14458
 N876 N 0.70601 0.22909 -0.13740
 N877 N 0.70891 0.21712 -0.12257
 C878 C 0.72664 0.21561 -0.11437
 N879 N 0.74138 0.22651 -0.12155
 N880 N 0.73849 0.23845 -0.13639
 C881 C 0.72984 0.20244 -0.09801
 N882 N 0.74736 0.20156 -0.08930
 N883 N 0.75026 0.18963 -0.07445
 C884 C 0.73577 0.17810 -0.06773
 N885 N 0.71825 0.17901 -0.07650
 N886 N 0.71533 0.19096 -0.09134
 C887 C 0.21859 0.75432 0.33690
 N888 N 0.21659 0.74727 0.31876
 N889 N 0.21348 0.75919 0.30394
 C890 C 0.21240 0.77860 0.30670
 N891 N 0.21445 0.78565 0.32484
 N892 N 0.21742 0.77372 0.33968
 C893 C 0.22200 0.74120 0.35325
 N894 N 0.22044 0.74768 0.37165
 N895 N 0.22350 0.73578 0.38650
 C896 C 0.22840 0.71701 0.38348
 N897 N 0.23004 0.71056 0.36507
 N898 N 0.22683 0.72242 0.35022
 C899 C 0.23184 0.70394 0.39985
 N900 N 0.24017 0.68638 0.39709
 N901 N 0.24333 0.67455 0.41197
 C902 C 0.23814 0.67975 0.43015
 N903 N 0.22974 0.69729 0.43286
 N904 N 0.22673 0.70919 0.41801
 C905 C 0.28331 0.75505 0.66038
 N906 N 0.26815 0.76212 0.67064
 N907 N 0.27106 0.77411 0.68534
 C908 C 0.28927 0.77943 0.69040
 N909 N 0.30444 0.77231 0.68014
 N910 N 0.30151 0.76038 0.66538
 C911 C 0.28006 0.74187 0.64414
 N912 N 0.29495 0.73646 0.63254
 N913 N 0.29197 0.72455 0.61777
 C914 C 0.27401 0.71753 0.61413
 N915 N 0.25913 0.72291 0.62576
 N916 N 0.26209 0.73489 0.64047
 C917 C 0.27070 0.70436 0.59790
 N918 N 0.25325 0.69571 0.59553
 N919 N 0.25025 0.68372 0.58084
 C920 C 0.26454 0.67999 0.56788
 N921 N 0.28199 0.68871 0.57026
 N922 N 0.28503 0.70063 0.58501
 C923 C 0.78168 0.25445 0.16144
 N924 N 0.79955 0.25676 0.16912
 N925 N 0.80235 0.26882 0.18379
 C926 C 0.78738 0.27902 0.19140
 N927 N 0.76950 0.27667 0.18368
 N928 N 0.76670 0.26464 0.16898
 C929 C 0.77859 0.24115 0.14527
 N930 N 0.76088 0.23944 0.13706
 N931 N 0.75808 0.22737 0.12240
 C932 C 0.77288 0.21653 0.11542
 N933 N 0.79059 0.21822 0.12363
 N934 N 0.79340 0.23032 0.13828
 C935 C 0.76978 0.20321 0.09926
 N936 N 0.78434 0.19177 0.09281
 N937 N 0.78151 0.17968 0.07816
 C938 C 0.76401 0.17858 0.06936
 N939 N 0.74946 0.19007 0.07586
 N940 N 0.75228 0.20213 0.09053
 C941 C 0.46764 0.41141 0.49661
 N942 N 0.48209 0.41827 0.48517
 N943 N 0.47888 0.43279 0.47290
 C944 C 0.46109 0.44100 0.47156
 N945 N 0.44667 0.43414 0.48309
 N946 N 0.44988 0.41963 0.49538
 C947 C 0.47111 0.39526 0.50999
 N948 N 0.45674 0.38866 0.52170
 N949 N 0.45982 0.37391 0.53372
 C950 C 0.47739 0.36519 0.53446
 N951 N 0.49176 0.37179 0.52277
 N952 N 0.48868 0.38657 0.51076
 C953 C 0.48074 0.34882 0.54761
 N954 N 0.49810 0.33970 0.54791
 N955 N 0.50109 0.32478 0.55975
 C956 C 0.48686 0.31839 0.57177
 N957 N 0.46950 0.32758 0.57144
 N958 N 0.46649 0.34249 0.55959
 C959 C -0.03282 0.90970 -0.00403
 N960 N -0.01804 0.91735 -0.01451
 N961 N -0.02106 0.93222 -0.02640
 C962 C -0.03900 0.94000 -0.02833
 N963 N -0.05377 0.93229 -0.01782
 N964 N -0.05074 0.91745 -0.00589
 C965 C -0.02947 0.89331 0.00909
 N966 N -0.04404 0.88624 0.02027
 N967 N -0.04100 0.87138 0.03218
 C968 C -0.02328 0.86302 0.03332
 N969 N -0.00871 0.87008 0.02213
 N970 N -0.01175 0.88497 0.01025
 C971 C -0.01992 0.84663 0.04643
 N972 N -0.00246 0.83769 0.04690
 N973 N 0.00058 0.82282 0.05879
 C974 C -0.01369 0.81632 0.07071
 N975 N -0.03114 0.82532 0.07021
 N976 N -0.03421 0.84016 0.05829
 C977 C 0.03312 0.58654 -0.00489
 N978 N 0.01820 0.57898 -0.01507
 N979 N 0.02110 0.56427 -0.02710
 C980 C 0.03903 0.55658 -0.02947
 N981 N 0.05394 0.56422 -0.01928
 N982 N 0.05103 0.57890 -0.00721
 C983 C 0.02992 0.60271 0.00842
 N984 N 0.04465 0.60967 0.01928
 N985 N 0.04175 0.62432 0.03139
 C986 C 0.02402 0.63257 0.03304
 N987 N 0.00929 0.62563 0.02216
 N988 N 0.01218 0.61095 0.01009
 C989 C 0.02083 0.64875 0.04634
 N990 N 0.00335 0.65761 0.04732
 N991 N 0.00048 0.67232 0.05935
 C992 C 0.01495 0.67874 0.07090
 N993 N 0.03242 0.66982 0.06991
 N994 N 0.03531 0.65513 0.05786
 C995 C 0.53458 0.08851 0.49502
 N996 N 0.55251 0.08089 0.49272
 N997 N 0.55545 0.06619 0.48069
 C998 C 0.54056 0.05849 0.47052
 N999 N 0.52261 0.06615 0.47287
 N1000 N 0.51968 0.08088 0.48486
 C1001 C 0.53133 0.10472 0.50827
 N1002 N 0.51355 0.11287 0.50995
 N1003 N 0.51061 0.12758 0.52197
 C1004 C 0.52532 0.13465 0.53278
 N1005 N 0.54309 0.12649 0.53112
 N1006 N 0.54605 0.11181 0.51907
 C1007 C 0.52205 0.15084 0.54606
 N1008 N 0.53653 0.15738 0.55748
 N1009 N 0.53355 0.17206 0.56954
 C1010 C 0.51599 0.18080 0.57062
 N1011 N 0.50153 0.17422 0.55914
 N1012 N 0.50449 0.15953 0.54711
 C1013 C -0.03373 0.09001 0.50515
 N1014 N -0.05156 0.08203 0.50728
 N1015 N -0.05431 0.06700 0.51908
 C1016 C -0.03934 0.05933 0.52919
 N1017 N -0.02150 0.06736 0.52701
 N1018 N -0.01876 0.08241 0.51524
 C1019 C -0.03070 0.10654 0.49210
 N1020 N -0.01303 0.11502 0.49054
 N1021 N -0.01027 0.12998 0.47866
 C1022 C -0.02506 0.13700 0.46789
 N1023 N -0.04272 0.12852 0.46944
 N1024 N -0.04549 0.11357 0.48134
 C1025 C -0.02199 0.15344 0.45472
 N1026 N -0.03654 0.15989 0.44330
 N1027 N -0.03372 0.17474 0.43130
 C1028 C -0.01627 0.18376 0.43026
 N1029 N -0.00175 0.17727 0.44175
 N1030 N -0.00454 0.16240 0.45373
 C1031 C 0.46612 0.58889 1.00351
 N1032 N 0.44825 0.58100 1.00562
 N1033 N 0.44538 0.56611 1.01756
 C1034 C 0.46026 0.55848 1.02783
 N1035 N 0.47814 0.56641 1.02566
 N1036 N 0.48101 0.58133 1.01376
 C1037 C 0.46931 0.60531 0.99036
 N1038 N 0.48701 0.61373 0.98891
 N1039 N 0.48991 0.62863 0.97699
 C1040 C 0.47523 0.63564 0.96606
 N1041 N 0.45753 0.62722 0.96750
 N1042 N 0.45462 0.61233 0.97945
 C1043 C 0.47846 0.65206 0.95291
 N1044 N 0.46406 0.65855 0.94133
 N1045 N 0.46703 0.67343 0.92939
 C1046 C 0.48450 0.68242 0.92858
 N1047 N 0.49888 0.67589 0.94021
 N1048 N 0.49593 0.66099 0.95212
 C1049 C 0.53104 0.91174 1.00506
 N1050 N 0.51607 0.91948 1.01511
 N1051 N 0.51895 0.93422 1.02709
 C1052 C 0.53693 0.94178 1.02954
 N1053 N 0.55189 0.93397 1.01948
 N1054 N 0.54901 0.91925 1.00747
 C1055 C 0.52787 0.89557 0.99176
 N1056 N 0.54271 0.88846 0.98105
 N1057 N 0.53984 0.87383 0.96892
 C1058 C 0.52203 0.86577 0.96707
 N1059 N 0.50720 0.87287 0.97779
 N1060 N 0.51006 0.88752 0.98990
 C1061 C 0.51888 0.84965 0.95370
 N1062 N 0.50130 0.84102 0.95245
 N1063 N 0.49846 0.82638 0.94034
 C1064 C 0.51308 0.81980 0.92898
 N1065 N 0.53067 0.82849 0.93025
 N1066 N 0.53352 0.84311 0.94238
 C1067 C 0.02975 0.41625 0.50107
 N1068 N 0.01520 0.42292 0.51242
 N1069 N 0.01823 0.43746 0.52461
 C1070 C 0.03595 0.44587 0.52597
 N1071 N 0.05046 0.43922 0.51452
 N1072 N 0.04743 0.42470 0.50231
 C1073 C 0.02649 0.40000 0.48789
 N1074 N 0.04097 0.39350 0.47633
 N1075 N 0.03808 0.37859 0.46456
 C1076 C 0.02061 0.36962 0.46392
 N1077 N 0.00613 0.37614 0.47546
 N1078 N 0.00901 0.39106 0.48722
 C1079 C 0.01748 0.35305 0.45110
 N1080 N 0.00023 0.34368 0.45096
 N1081 N -0.00257 0.32857 0.43943
 C1082 C 0.01175 0.32223 0.42757
 N1083 N 0.02901 0.33167 0.42773
 N1084 N 0.03183 0.34677 0.43928
 C1085 C 0.41114 0.49360 0.46775
 N1086 N 0.41597 0.48817 0.44957
 N1087 N 0.43087 0.47636 0.44648
 C1088 C 0.44144 0.46946 0.46149
 N1089 N 0.43656 0.47488 0.47969
 N1090 N 0.42172 0.48676 0.48276
 C1091 C 0.39477 0.50668 0.47115
 N1092 N 0.39135 0.51396 0.48900
 N1093 N 0.37655 0.52590 0.49206
 C1094 C 0.36456 0.53090 0.47741
 N1095 N 0.36794 0.52357 0.45957
 N1096 N 0.38280 0.51172 0.45648
 C1097 C 0.34827 0.54409 0.48078
 N1098 N 0.33501 0.54736 0.46676
 N1099 N 0.32026 0.55937 0.46980
 C1100 C 0.31826 0.56866 0.48694
 N1101 N 0.33158 0.56538 0.50093
 N1102 N 0.34627 0.55329 0.49793
 C1103 C 0.91149 -0.00658 -0.03190
 N1104 N 0.91903 -0.00882 -0.04985
 N1105 N 0.93381 -0.02080 -0.05285
 C1106 C 0.94166 -0.03099 -0.03801
 N1107 N 0.93408 -0.02870 -0.02005
 N1108 N 0.91927 -0.01675 -0.01705
 C1109 C 0.89521 0.00664 -0.02859
 N1110 N 0.88713 0.00829 -0.01080
 N1111 N 0.87236 0.02029 -0.00781
 C1112 C 0.86517 0.03111 -0.02251
 N1113 N 0.87326 0.02948 -0.04030
 N1114 N 0.88800 0.01745 -0.04330
 C1115 C 0.84890 0.04436 -0.01922
 N1116 N 0.84225 0.05578 -0.03372
 N1117 N 0.82751 0.06780 -0.03073
 C1118 C 0.81879 0.06885 -0.01316
 N1119 N 0.82548 0.05738 0.00131
 N1120 N 0.84026 0.04539 -0.00165
 C1121 C 0.58694 -0.00531 0.03365
 N1122 N 0.57920 -0.01527 0.01871
 N1123 N 0.56418 -0.02705 0.02153
 C1124 C 0.55633 -0.02938 0.03940
 N1125 N 0.56413 -0.01939 0.05433
 N1126 N 0.57912 -0.00758 0.05151
 C1127 C 0.60347 0.00770 0.03054
 N1128 N 0.61067 0.01834 0.04529
 N1129 N 0.62566 0.03017 0.04244
 C1130 C 0.63401 0.03176 0.02474
 N1131 N 0.62682 0.02110 0.01000
 N1132 N 0.61182 0.00930 0.01284
 C1133 C 0.65052 0.04479 0.02158
 N1134 N 0.65938 0.04574 0.00410
 N1135 N 0.67435 0.05757 0.00122
 C1136 C 0.68103 0.06896 0.01568
 N1137 N 0.67211 0.06798 0.03317
 N1138 N 0.65716 0.05613 0.03607
 C1139 C 0.08567 0.49879 0.53036
 N1140 N 0.08066 0.49314 0.54848
 N1141 N 0.06578 0.48120 0.55138
 C1142 C 0.05541 0.47438 0.53625
 N1143 N 0.06046 0.48001 0.51811
 N1144 N 0.07528 0.49203 0.51523
 C1145 C 0.10207 0.51195 0.52720
 N1146 N 0.10577 0.51939 0.50940
 N1147 N 0.12068 0.53132 0.50655
 C1148 C 0.13248 0.53616 0.52138
 N1149 N 0.12880 0.52869 0.53917
 N1150 N 0.11384 0.51685 0.54203
 C1151 C 0.14902 0.54916 0.51824
 N1152 N 0.16214 0.55209 0.53245
 N1153 N 0.17724 0.56375 0.52958
 C1154 C 0.17978 0.57301 0.51242
 N1155 N 0.16658 0.57011 0.49825
 N1156 N 0.15152 0.55837 0.50108
 C1157 C 0.08849 0.50326 -0.03376
 N1158 N 0.08084 0.50563 -0.05162
 N1159 N 0.06602 0.51760 -0.05441
 C1160 C 0.05824 0.52765 -0.03946
 N1161 N 0.06593 0.52522 -0.02160
 N1162 N 0.08077 0.51328 -0.01881
 C1163 C 0.10486 0.49010 -0.03066
 N1164 N 0.11306 0.48843 -0.01297
 N1165 N 0.12791 0.47652 -0.01015
 C1166 C 0.13509 0.46581 -0.02490
 N1167 N 0.12688 0.46746 -0.04259
 N1168 N 0.11204 0.47941 -0.04543
 C1169 C 0.15146 0.45266 -0.02175
 N1170 N 0.15811 0.44128 -0.03624
 N1171 N 0.17294 0.42935 -0.03334
 C1172 C 0.18173 0.42834 -0.01587
 N1173 N 0.17504 0.43978 -0.00140
 N1174 N 0.16019 0.45169 -0.00428
 C1175 C 0.58993 1.00504 0.46642
 N1176 N 0.58222 1.01513 0.48134
 N1177 N 0.56742 1.02712 0.47849
 C1178 C 0.55978 1.02953 0.46060
 N1179 N 0.56756 1.01942 0.44569
 N1180 N 0.58232 1.00740 0.44855
 C1181 C 0.60621 0.99179 0.46958
 N1182 N 0.61336 0.98104 0.45485
 N1183 N 0.62811 0.96899 0.45773
 C1184 C 0.63625 0.96728 0.47545
 N1185 N 0.62911 0.97805 0.49018
 N1186 N 0.61434 0.99007 0.48730
 C1187 C 0.65251 0.95401 0.47864
 N1188 N 0.66118 0.95293 0.49614
 N1189 N 0.67594 0.94091 0.49903
 C1190 C 0.68258 0.92945 0.48457
 N1191 N 0.67385 0.93055 0.46707
 N1192 N 0.65911 0.94260 0.46415
 C1193 C 0.91187 1.00515 0.53242
 N1194 N 0.91936 1.00729 0.55036
 N1195 N 0.93400 1.01943 0.55340
 C1196 C 0.94177 1.02987 0.53862
 N1197 N 0.93425 1.02768 0.52067
 N1198 N 0.91958 1.01557 0.51763
 C1199 C 0.89572 0.99177 0.52907
 N1200 N 0.88772 0.99020 0.51128
 N1201 N 0.87305 0.97808 0.50825
 C1202 C 0.86588 0.96706 0.52288
 N1203 N 0.87389 0.96861 0.54066
 N1204 N 0.88854 0.98076 0.54370
 C1205 C 0.84970 0.95371 0.51954
 N1206 N 0.84302 0.94214 0.53397
 N1207 N 0.82833 0.93005 0.53094
 C1208 C 0.81971 0.92907 0.51338
 N1209 N 0.82644 0.94068 0.49897
 N1210 N 0.84115 0.95275 0.50198
 C1211 C 0.41125 0.50450 0.03150
 N1212 N 0.41872 0.50678 0.04942
 N1213 N 0.43339 0.51890 0.05238
 C1214 C 0.44120 0.52921 0.03753
 N1215 N 0.43369 0.52688 0.01959
 N1216 N 0.41900 0.51479 0.01664
 C1217 C 0.39507 0.49114 0.02824
 N1218 N 0.38708 0.48945 0.01046
 N1219 N 0.37239 0.47734 0.00750
 C1220 C 0.36518 0.46644 0.02221
 N1221 N 0.37319 0.46811 0.03998
 N1222 N 0.38785 0.48025 0.04294
 C1223 C 0.34899 0.45309 0.01895
 N1224 N 0.34229 0.44162 0.03344
 N1225 N 0.32759 0.42953 0.03048
 C1226 C 0.31899 0.42844 0.01292
 N1227 N 0.32574 0.43995 -0.00156
 N1228 N 0.34046 0.45202 0.00138
 C1229 C 0.49326 0.46551 0.41052
 N1230 N 0.48223 0.48012 0.41756
 N1231 N 0.47074 0.47724 0.43278
 C1232 C 0.46982 0.45964 0.44156
 N1233 N 0.48080 0.44502 0.43441
 N1234 N 0.49231 0.44790 0.41921
 C1235 C 0.50614 0.46877 0.39392
 N1236 N 0.51771 0.45437 0.38732
 N1237 N 0.52956 0.45740 0.37240
 C1238 C 0.53027 0.47495 0.36354
 N1239 N 0.51867 0.48934 0.37012
 N1240 N 0.50684 0.48631 0.38505
 C1241 C 0.54344 0.47835 0.34719
 N1242 N 0.54385 0.49576 0.33809
 N1243 N 0.55587 0.49888 0.32333
 C1244 C 0.56797 0.48472 0.31710
 N1245 N 0.56751 0.46730 0.32625
 N1246 N 0.55548 0.46416 0.34100
 C1247 C -0.00533 -0.03468 0.91204
 N1248 N -0.01536 -0.01977 0.91988
 N1249 N -0.02718 -0.02273 0.93483
 C1250 C -0.02945 -0.04071 0.94253
 N1251 N -0.01940 -0.05562 0.93463
 N1252 N -0.00756 -0.05266 0.91970
 C1253 C 0.00772 -0.03142 0.89558
 N1254 N 0.01840 -0.04616 0.88827
 N1255 N 0.03026 -0.04318 0.87335
 C1256 C 0.03184 -0.02536 0.86518
 N1257 N 0.02115 -0.01062 0.87247
 N1258 N 0.00931 -0.01359 0.88741
 C1259 C 0.04492 -0.02206 0.84873
 N1260 N 0.04589 -0.00445 0.84006
 N1261 N 0.05776 -0.00146 0.82515
 C1262 C 0.06914 -0.01594 0.81835
 N1263 N 0.06814 -0.03356 0.82708
 N1264 N 0.05625 -0.03657 0.84197
 C1265 C -0.00505 0.03350 0.58798
 N1266 N -0.01511 0.01862 0.58016
 N1267 N -0.02701 0.02166 0.56539
 C1268 C -0.02936 0.03970 0.55788
 N1269 N -0.01926 0.05457 0.56577
 N1270 N -0.00733 0.05153 0.58051
 C1271 C 0.00806 0.03013 0.60428
 N1272 N 0.01880 0.04482 0.61157
 N1273 N 0.03068 0.04175 0.62636
 C1274 C 0.03223 0.02387 0.63440
 N1275 N 0.02148 0.00919 0.62711
 N1276 N 0.00963 0.01225 0.61231
 C1277 C 0.04530 0.02047 0.65072
 N1278 N 0.04617 0.00281 0.65931
 N1279 N 0.05800 -0.00028 0.67413
 C1280 C 0.06946 0.01414 0.68091
 N1281 N 0.06857 0.03179 0.67226
 N1282 N 0.05671 0.03491 0.65747
 C1283 C 0.49427 0.53323 0.08700
 N1284 N 0.48424 0.51828 0.07927
 N1285 N 0.47237 0.52119 0.06445
 C1286 C 0.47003 0.53916 0.05679
 N1287 N 0.48009 0.55411 0.06458
 N1288 N 0.49199 0.55120 0.07938
 C1289 C 0.50737 0.53001 0.10333
 N1290 N 0.51806 0.54479 0.11053
 N1291 N 0.52996 0.54185 0.12533
 C1292 C 0.53156 0.52404 0.13349
 N1293 N 0.52086 0.50927 0.12630
 N1294 N 0.50899 0.51220 0.11148
 C1295 C 0.54465 0.52078 0.14982
 N1296 N 0.54561 0.50318 0.15850
 N1297 N 0.55746 0.50022 0.17332
 C1298 C 0.56886 0.51472 0.18004
 N1299 N 0.56788 0.53233 0.17129
 N1300 N 0.55600 0.53531 0.15649
 C1301 C 0.50238 -0.03264 0.08839
 N1302 N 0.50429 -0.05057 0.08070
 N1303 N 0.51635 -0.05363 0.06599
 C1304 C 0.52694 -0.03886 0.05835
 N1305 N 0.52495 -0.02092 0.06605
 N1306 N 0.51293 -0.01787 0.08079
 C1307 C 0.48921 -0.02926 0.10470
 N1308 N 0.48806 -0.01152 0.11296
 N1309 N 0.47620 -0.00844 0.12782
 C1310 C 0.46502 -0.02299 0.13495
 N1311 N 0.46615 -0.04073 0.12667
 N1312 N 0.47804 -0.04381 0.11183
 C1313 C 0.45201 -0.01959 0.15139
 N1314 N 0.44022 -0.03386 0.15805
 N1315 N 0.42848 -0.03075 0.17300
 C1316 C 0.42808 -0.01327 0.18190
 N1317 N 0.43991 0.00098 0.17519
 N1318 N 0.45163 -0.00211 0.16022
 C1319 C 1.00368 0.46916 0.58720
 N1320 N 1.01447 0.48402 0.58017
 N1321 N 1.02592 0.48152 0.56488
 C1322 C 1.02703 0.46404 0.55602
 N1323 N 1.01626 0.44916 0.56315
 N1324 N 1.00479 0.45167 0.57843
 C1325 C 0.99089 0.47199 0.60392
 N1326 N 0.97955 0.45733 0.61053
 N1327 N 0.96783 0.45996 0.62559
 C1328 C 0.96703 0.47736 0.63460
 N1329 N 0.97840 0.49201 0.62801
 N1330 N 0.99011 0.48938 0.61293
 C1331 C 0.95402 0.48032 0.65112
 N1332 N 0.95357 0.49757 0.66038
 N1333 N 0.94171 0.50030 0.67531
 C1334 C 0.92979 0.48591 0.68155
 N1335 N 0.93028 0.46865 0.67223
 N1336 N 0.94216 0.46590 0.65732
 C1337 C 1.00480 0.53183 0.91145
 N1338 N 1.00700 0.54971 0.91917
 N1339 N 1.01898 0.55253 0.93390
 C1340 C 1.02921 0.53757 0.94152
 N1341 N 1.02695 0.51968 0.93377
 N1342 N 1.01500 0.51687 0.91901
 C1343 C 0.99161 0.52872 0.89520
 N1344 N 0.99003 0.51100 0.88696
 N1345 N 0.97808 0.50817 0.87221
 C1346 C 0.96724 0.52294 0.86518
 N1347 N 0.96879 0.54066 0.87342
 N1348 N 0.98077 0.54350 0.88816
 C1349 C 0.95405 0.51980 0.84892
 N1350 N 0.94260 0.53433 0.84240
 N1351 N 0.93064 0.53145 0.82766
 C1352 C 0.92968 0.51395 0.81884
 N1353 N 0.94119 0.49944 0.82541
 N1354 N 0.95312 0.50230 0.84016
 C1355 C 0.50643 0.03373 0.41140
 N1356 N 0.51663 0.01877 0.41896
 N1357 N 0.52856 0.02159 0.43373
 C1358 C 0.53080 0.03947 0.44150
 N1359 N 0.52058 0.05443 0.43387
 N1360 N 0.50862 0.05161 0.41913
 C1361 C 0.49322 0.03062 0.39516
 N1362 N 0.48232 0.04539 0.38819
 N1363 N 0.47029 0.04254 0.37350
 C1364 C 0.46874 0.02484 0.36522
 N1365 N 0.47966 0.01008 0.37217
 N1366 N 0.49166 0.01292 0.38688
 C1367 C 0.45546 0.02170 0.34905
 N1368 N 0.45452 0.00424 0.34022
 N1369 N 0.44244 0.00138 0.32558
 C1370 C 0.43079 0.01587 0.31920
 N1371 N 0.43176 0.03333 0.32808
 N1372 N 0.44387 0.03621 0.34270
   
