data_POSCAR
  _audit_creation_date              2014-09-24
  _audit_creation_method            'ToBaCCo'
  _symmetry_space_group_name_H-M    'P1'
  _symmetry_Int_Tables_number       1
  _symmetry_cell_setting            triclinic
  loop_
  _symmetry_equiv_pos_as_xyz
 x,y,z
_cell_length_a 50.6648
_cell_length_b 50.7198
_cell_length_c 50.6760
_cell_angle_alpha 89.998200
_cell_angle_beta 90.001600
_cell_angle_gamma 89.992000
loop_
  _atom_site_label
  _atom_site_type_symbol
  _atom_site_fract_x
  _atom_site_fract_y
  _atom_site_fract_z
C1 C 0.25146 0.94532 -0.02409
 C2 C 0.25130 0.93177 -0.00009
 C3 C 0.25102 0.94524 0.02393
 C4 C 0.25096 0.97310 0.02426
 C5 C 0.25105 0.98716 0.00003
 C6 C 0.25126 0.97323 -0.02429
 C7 C 0.25126 0.98758 -0.04805
 C8 C 0.25103 1.01503 -0.04795
 C9 C 0.25086 1.02924 -0.02409
 C10 C 0.25091 1.01517 0.00014
 C11 C 0.25080 0.98723 0.04812
 C12 C 0.25076 1.01469 0.04823
 C13 C 0.25080 1.02907 0.02448
 C14 C 0.25073 1.05698 0.02432
 C15 C 0.25061 1.07058 0.00034
 C16 C 0.25063 1.05714 -0.02373
 H17 H 0.25141 0.97766 -0.06697
 H18 H 0.25102 1.02507 -0.06681
 H19 H 0.25074 0.97715 0.06695
 H20 H 0.25067 1.02459 0.06717
 H21 H 0.25138 0.91034 -0.00004
 H22 H 0.25050 1.09202 0.00040
 C23 C 0.75120 0.55641 0.52373
 C24 C 0.75110 0.56978 0.49966
 C25 C 0.75101 0.55610 0.47576
 C26 C 0.75110 0.52825 0.47568
 C27 C 0.75113 0.51444 0.50005
 C28 C 0.75113 0.52856 0.52421
 C29 C 0.75105 0.51450 0.54813
 C30 C 0.75098 0.48703 0.54832
 C31 C 0.75104 0.47265 0.52461
 C32 C 0.75115 0.48646 0.50025
 C33 C 0.75117 0.51386 0.45197
 C34 C 0.75130 0.48640 0.45216
 C35 C 0.75128 0.47234 0.47608
 C36 C 0.75139 0.44451 0.47655
 C37 C 0.75122 0.43113 0.50062
 C38 C 0.75101 0.44480 0.52452
 H39 H 0.75103 0.52463 0.56693
 H40 H 0.75090 0.47715 0.56726
 H41 H 0.75117 0.52373 0.43303
 H42 H 0.75138 0.47627 0.43336
 H43 H 0.75110 0.59119 0.49952
 H44 H 0.75125 0.40972 0.50074
 C45 C 0.74944 1.02352 1.05684
 C46 C 0.74926 0.99953 1.07033
 C47 C 0.74903 0.97556 1.05673
 C48 C 0.74904 0.97538 1.02881
 C49 C 0.74914 0.99969 1.01491
 C50 C 0.74931 1.02388 1.02897
 C51 C 0.74933 1.04773 1.01482
 C52 C 0.74919 1.04785 0.98734
 C53 C 0.74909 1.02411 0.97301
 C54 C 0.74910 0.99981 0.98691
 C55 C 0.74897 0.95164 1.01441
 C56 C 0.74902 0.95178 0.98694
 C57 C 0.74908 0.97564 0.97282
 C58 C 0.74913 0.97603 0.94495
 C59 C 0.74905 1.00004 0.93151
 C60 C 0.74899 1.02396 0.94514
 H61 H 0.74943 1.06656 1.02490
 H62 H 0.74920 1.06674 0.97739
 H63 H 0.74891 0.93272 1.02431
 H64 H 0.74899 0.93297 0.97684
 H65 H 0.74932 0.99956 1.09177
 H66 H 0.74905 1.00012 0.91008
 C67 C 0.24796 0.47682 0.55680
 C68 C 0.24826 0.50087 0.57020
 C69 C 0.24842 0.52478 0.55654
 C70 C 0.24820 0.52488 0.52865
 C71 C 0.24797 0.50054 0.51480
 C72 C 0.24788 0.47639 0.52893
 C73 C 0.24773 0.45250 0.51482
 C74 C 0.24770 0.45233 0.48733
 C75 C 0.24775 0.47602 0.47294
 C76 C 0.24784 0.50036 0.48679
 C77 C 0.24821 0.54858 0.51425
 C78 C 0.24800 0.54840 0.48675
 C79 C 0.24783 0.52452 0.47265
 C80 C 0.24765 0.52407 0.44477
 C81 C 0.24763 0.50001 0.43139
 C82 C 0.24772 0.47611 0.44506
 H83 H 0.24767 0.43370 0.52495
 H84 H 0.24761 0.43341 0.47743
 H85 H 0.24837 0.56749 0.52415
 H86 H 0.24800 0.56719 0.47661
 H87 H 0.24838 0.50098 0.59163
 H88 H 0.24757 0.49988 0.40996
 C89 C 0.94486 0.25050 -0.02450
 C90 C 0.93133 0.25044 -0.00048
 C91 C 0.94487 0.25029 0.02350
 C92 C 0.97274 0.25029 0.02378
 C93 C 0.98677 0.25026 -0.00046
 C94 C 0.97280 0.25033 -0.02475
 C95 C 0.98712 0.25020 -0.04854
 C96 C 1.01460 0.24998 -0.04848
 C97 C 1.02885 0.24997 -0.02463
 C98 C 1.01481 0.25016 -0.00039
 C99 C 0.98692 0.25032 0.04763
 C100 C 1.01440 0.25033 0.04770
 C101 C 1.02875 0.25024 0.02393
 C102 C 1.05668 0.25021 0.02373
 C103 C 1.07027 0.24993 -0.00025
 C104 C 1.05678 0.24977 -0.02430
 H105 H 0.97716 0.25022 -0.06744
 H106 H 1.02462 0.24986 -0.06735
 H107 H 0.97687 0.25036 0.06648
 H108 H 1.02433 0.25038 0.06662
 H109 H 0.90988 0.25049 -0.00039
 H110 H 1.09173 0.24985 -0.00021
 C111 C 0.44478 0.74935 0.47611
 C112 C 0.43142 0.74939 0.50020
 C113 C 0.44513 0.74928 0.52410
 C114 C 0.47302 0.74920 0.52415
 C115 C 0.48683 0.74907 0.49977
 C116 C 0.47266 0.74910 0.47562
 C117 C 0.48672 0.74889 0.45169
 C118 C 0.51421 0.74864 0.45147
 C119 C 0.52865 0.74868 0.47517
 C120 C 0.51484 0.74893 0.49954
 C121 C 0.48745 0.74927 0.54785
 C122 C 0.51494 0.74924 0.54763
 C123 C 0.52901 0.74907 0.52370
 C124 C 0.55688 0.74905 0.52322
 C125 C 0.57025 0.74872 0.49912
 C126 C 0.55654 0.74850 0.47522
 H127 H 0.47655 0.74888 0.43290
 H128 H 0.52409 0.74846 0.43252
 H129 H 0.47757 0.74938 0.56679
 H130 H 0.52510 0.74933 0.56642
 H131 H 0.40999 0.74953 0.50036
 H132 H 0.59168 0.74866 0.49898
 C133 C 0.02390 0.74964 0.05492
 C134 C -0.00013 0.74927 0.06839
 C135 C -0.02411 0.74911 0.05479
 C136 C -0.02428 0.74940 0.02686
 C137 C 0.00005 0.74970 0.01296
 C138 C 0.02426 0.74978 0.02705
 C139 C 0.04815 0.75000 0.01294
 C140 C 0.04830 0.75012 -0.01454
 C141 C 0.02455 0.75009 -0.02895
 C142 C 0.00019 0.74993 -0.01507
 C143 C -0.04803 0.74942 0.01248
 C144 C -0.04791 0.74974 -0.01499
 C145 C -0.02402 0.74999 -0.02917
 C146 C -0.02363 0.75029 -0.05709
 C147 C 0.00045 0.75037 -0.07052
 C148 C 0.02442 0.75024 -0.05688
 H149 H 0.06697 0.75005 0.02304
 H150 H 0.06724 0.75026 -0.02442
 H151 H -0.06697 0.74921 0.02238
 H152 H -0.06676 0.74977 -0.02505
 H153 H -0.00010 0.74911 0.08983
 H154 H 0.00054 0.75054 -0.09197
 C155 C 0.47635 0.24975 0.55591
 C156 C 0.50041 0.24987 0.56934
 C157 C 0.52435 0.25014 0.55570
 C158 C 0.52448 0.25022 0.52782
 C159 C 0.50014 0.25018 0.51394
 C160 C 0.47594 0.24999 0.52804
 C161 C 0.45205 0.25004 0.51391
 C162 C 0.45190 0.25027 0.48642
 C163 C 0.47565 0.25040 0.47206
 C164 C 0.49999 0.25032 0.48593
 C165 C 0.54823 0.25033 0.51346
 C166 C 0.54809 0.25036 0.48597
 C167 C 0.52419 0.25036 0.47183
 C168 C 0.52378 0.25038 0.44396
 C169 C 0.49971 0.25054 0.43053
 C170 C 0.47577 0.25058 0.44418
 H171 H 0.43322 0.24992 0.52402
 H172 H 0.43298 0.25033 0.47650
 H173 H 0.56715 0.25035 0.52339
 H174 H 0.56691 0.25041 0.47586
 H175 H 0.50050 0.24975 0.59076
 H176 H 0.49961 0.25060 0.40911
 C177 C 0.94408 -0.02441 0.25051
 C178 C 0.93040 -0.00052 0.25044
 C179 C 0.94380 0.02353 0.25049
 C180 C 0.97167 0.02396 0.25068
 C181 C 0.98581 -0.00019 0.25068
 C182 C 0.97196 -0.02451 0.25056
 C183 C 0.98634 -0.04822 0.25048
 C184 C 1.01383 -0.04806 0.25049
 C185 C 1.02793 -0.02418 0.25065
 C186 C 1.01382 -0.00001 0.25079
 C187 C 0.98576 0.04785 0.25086
 C188 C 1.01324 0.04803 0.25106
 C189 C 1.02768 0.02432 0.25101
 C190 C 1.05561 0.02418 0.25117
 C191 C 1.06924 0.00024 0.25097
 C192 C 1.05580 -0.02377 0.25067
 H193 H 0.97643 -0.06714 0.25038
 H194 H 1.02395 -0.06686 0.25041
 H195 H 0.97562 0.06664 0.25088
 H196 H 1.02311 0.06696 0.25122
 H197 H 0.90897 -0.00063 0.25034
 H198 H 1.09069 0.00024 0.25102
 C199 C 0.44355 0.47614 0.75162
 C200 C 0.43010 0.50018 0.75152
 C201 C 0.44373 0.52411 0.75146
 C202 C 0.47163 0.52424 0.75160
 C203 C 0.48552 0.49993 0.75164
 C204 C 0.47144 0.47575 0.75161
 C205 C 0.48559 0.45189 0.75157
 C206 C 0.51309 0.45176 0.75152
 C207 C 0.52744 0.47549 0.75160
 C208 C 0.51354 0.49980 0.75169
 C209 C 0.48598 0.54797 0.75169
 C210 C 0.51347 0.54784 0.75184
 C211 C 0.52762 0.52398 0.75183
 C212 C 0.55550 0.52360 0.75194
 C213 C 0.56895 0.49957 0.75178
 C214 C 0.55534 0.47564 0.75157
 H215 H 0.47549 0.43308 0.75153
 H216 H 0.52304 0.43287 0.75146
 H217 H 0.47604 0.56687 0.75168
 H218 H 0.52357 0.56665 0.75193
 H219 H 0.40867 0.50026 0.75146
 H220 H 0.59038 0.49949 0.75180
 C221 C 1.02438 0.94442 0.74917
 C222 C 1.00036 0.93089 0.74942
 C223 C 0.97635 0.94440 0.74953
 C224 C 0.97604 0.97225 0.74930
 C225 C 1.00028 0.98628 0.74913
 C226 C 1.02460 0.97233 0.74912
 C227 C 1.04838 0.98666 0.74906
 C228 C 1.04831 1.01410 0.74904
 C229 C 1.02445 1.02834 0.74901
 C230 C 1.00021 1.01430 0.74900
 C231 C 0.95219 0.98642 0.74922
 C232 C 0.95210 1.01387 0.74898
 C233 C 0.97587 1.02823 0.74889
 C234 C 0.97606 1.05614 0.74869
 C235 C 1.00007 1.06970 0.74878
 C236 C 1.02412 1.05624 0.74898
 H237 H 1.06730 0.97672 0.74906
 H238 H 1.06718 1.02412 0.74902
 H239 H 0.93334 0.97636 0.74932
 H240 H 0.93318 1.02380 0.74891
 H241 H 1.00029 0.90947 0.74953
 H242 H 1.00002 1.09114 0.74871
 C243 C 0.52303 0.44329 0.24869
 C244 C 0.49896 0.42991 0.24905
 C245 C 0.47505 0.44359 0.24916
 C246 C 0.47496 0.47144 0.24883
 C247 C 0.49932 0.48525 0.24854
 C248 C 0.52349 0.47113 0.24852
 C249 C 0.54742 0.48519 0.24834
 C250 C 0.54761 0.51265 0.24820
 C251 C 0.52388 0.52703 0.24816
 C252 C 0.49952 0.51322 0.24828
 C253 C 0.45124 0.48583 0.24876
 C254 C 0.45143 0.51329 0.24840
 C255 C 0.47535 0.52735 0.24817
 C256 C 0.47582 0.55519 0.24783
 C257 C 0.49990 0.56856 0.24779
 C258 C 0.52380 0.55488 0.24800
 H259 H 0.56623 0.47506 0.24834
 H260 H 0.56655 0.52253 0.24809
 H261 H 0.43229 0.47595 0.24896
 H262 H 0.43262 0.52343 0.24834
 H263 H 0.49884 0.40851 0.24923
 H264 H 0.50003 0.58997 0.24761
 O265 O 0.24922 0.18149 0.21360
 O266 O 0.27802 0.17389 0.25030
 O267 O 0.18001 0.21320 0.25165
 O268 O 0.17049 0.24733 0.27776
 O269 O 0.21224 0.25052 0.18204
 O270 O 0.24893 0.27936 0.17476
 O271 O 0.24894 0.28609 0.31907
 O272 O 0.21813 0.25070 0.32552
 O273 O 0.31663 0.25057 0.28713
 O274 O 0.32503 0.22087 0.24992
 O275 O 0.28489 0.31798 0.25161
 O276 O 0.24712 0.32600 0.22163
 O277 O 0.24927 0.31774 0.28724
 O278 O 0.21921 0.32588 0.24968
 O279 O 0.31660 0.28619 0.25157
 O280 O 0.32459 0.24832 0.22135
 O281 O 0.28501 0.25129 0.31902
 O282 O 0.25312 0.22109 0.32714
 O283 O 0.24932 0.21344 0.18200
 O284 O 0.27825 0.25019 0.17479
 O285 O 0.18029 0.24998 0.21366
 O286 O 0.17412 0.28049 0.25087
 O287 O 0.21183 0.18151 0.25034
 O288 O 0.24999 0.17324 0.27921
 Zr289 Zr 0.24767 0.20249 0.24950
 O290 O 0.27214 0.22513 0.27429
 Zr291 Zr 0.20128 0.24877 0.24961
 O292 O 0.22385 0.27334 0.27449
 Zr293 Zr 0.24783 0.24899 0.20332
 O294 O 0.27234 0.27361 0.22603
 Zr295 Zr 0.24935 0.25048 0.29777
 O296 O 0.22435 0.22538 0.27535
 Zr297 Zr 0.29559 0.25046 0.25136
 O298 O 0.27328 0.22558 0.22632
 Zr299 Zr 0.24914 0.29680 0.25141
 O300 O 0.22435 0.27433 0.22634
 O301 O 0.22322 0.22442 0.22500
 O302 O 0.27398 0.27524 0.27610
 C303 C 0.24990 0.18927 0.18948
 C304 C 0.18770 0.18909 0.25160
 C305 C 0.18806 0.25085 0.18955
 C306 C 0.24909 0.31020 0.31140
 C307 C 0.30913 0.25104 0.31129
 C308 C 0.30903 0.31032 0.25165
 H309 H 0.28282 0.21319 0.28543
 H310 H 0.28323 0.28452 0.21410
 H311 H 0.21196 0.21317 0.21369
 H312 H 0.21194 0.28406 0.28562
 H313 H 0.20633 0.23584 0.32089
 H314 H 0.17693 0.25636 0.29381
 H315 H 0.32127 0.26286 0.20877
 H316 H 0.29216 0.23796 0.18097
 H317 H 0.24236 0.20598 0.32125
 H318 H 0.23460 0.17560 0.29099
 H319 H 0.26136 0.32241 0.20876
 H320 H 0.23679 0.29331 0.18103
 H321 H 0.29201 0.18026 0.23824
 H322 H 0.32068 0.20750 0.26345
 H323 H 0.17947 0.29308 0.23693
 H324 H 0.20632 0.32204 0.26382
 O325 O 0.74958 0.81696 0.21157
 O326 O 0.72093 0.82463 0.24816
 O327 O 0.81884 0.78526 0.24942
 O328 O 0.82838 0.75100 0.27538
 O329 O 0.78678 0.74828 0.17950
 O330 O 0.75006 0.71935 0.17223
 O331 O 0.74990 0.71230 0.31637
 O332 O 0.78071 0.74752 0.32307
 O333 O 0.68214 0.74775 0.28479
 O334 O 0.67392 0.77769 0.24745
 O335 O 0.71397 0.68046 0.24893
 O336 O 0.75165 0.67247 0.21903
 O337 O 0.74955 0.68052 0.28466
 O338 O 0.77977 0.67269 0.24692
 O339 O 0.68226 0.71223 0.24903
 O340 O 0.67416 0.75008 0.21901
 O341 O 0.71398 0.74700 0.31646
 O342 O 0.74581 0.77714 0.32476
 O343 O 0.74962 0.78538 0.17961
 O344 O 0.72065 0.74861 0.17233
 O345 O 0.81849 0.74860 0.21137
 O346 O 0.82475 0.71800 0.24838
 O347 O 0.78701 0.81693 0.24821
 O348 O 0.74876 0.82503 0.27714
 Zr349 Zr 0.75118 0.79592 0.24730
 O350 O 0.72667 0.77325 0.27194
 Zr351 Zr 0.79756 0.74969 0.24724
 O352 O 0.77501 0.72502 0.27199
 Zr353 Zr 0.75111 0.74968 0.20082
 O354 O 0.72657 0.72497 0.22351
 Zr355 Zr 0.74956 0.74788 0.29525
 O356 O 0.77456 0.77304 0.27304
 Zr357 Zr 0.70323 0.74798 0.24895
 O358 O 0.72560 0.77293 0.22399
 Zr359 Zr 0.74972 0.70164 0.24884
 O360 O 0.77452 0.72422 0.22384
 O361 O 0.77567 0.77414 0.22270
 O362 O 0.72490 0.72315 0.27358
 C363 C 0.74897 0.80947 0.18739
 C364 C 0.81114 0.80937 0.24945
 C365 C 0.81092 0.74786 0.18720
 C366 C 0.74972 0.68818 0.30880
 C367 C 0.68982 0.74724 0.30892
 C368 C 0.68984 0.68812 0.24902
 H369 H 0.71600 0.78516 0.28313
 H370 H 0.71568 0.71410 0.21154
 H371 H 0.78693 0.78545 0.21145
 H372 H 0.78692 0.71429 0.28310
 H373 H 0.79258 0.76235 0.31850
 H374 H 0.82195 0.74190 0.29139
 H375 H 0.67767 0.73575 0.20624
 H376 H 0.70675 0.76081 0.17859
 H377 H 0.75663 0.79226 0.31898
 H378 H 0.76425 0.82278 0.28883
 H379 H 0.73761 0.67628 0.20601
 H380 H 0.76226 0.70544 0.17846
 H381 H 0.70681 0.81821 0.23628
 H382 H 0.67805 0.79081 0.26129
 H383 H 0.81938 0.70541 0.23445
 H384 H 0.79247 0.67628 0.26131
 O385 O 0.75031 0.18165 0.78676
 O386 O 0.72191 0.17388 0.75002
 O387 O 0.81930 0.21378 0.74910
 O388 O 0.82911 0.24808 0.72351
 O389 O 0.78707 0.25050 0.81899
 O390 O 0.75042 0.27908 0.82652
 O391 O 0.74968 0.28627 0.68204
 O392 O 0.78042 0.25193 0.67477
 O393 O 0.68252 0.25085 0.71401
 O394 O 0.67411 0.22129 0.75148
 O395 O 0.71438 0.31817 0.74954
 O396 O 0.75195 0.32651 0.77910
 O397 O 0.74976 0.31807 0.71373
 O398 O 0.78023 0.32590 0.75145
 O399 O 0.68252 0.28656 0.74960
 O400 O 0.67483 0.24861 0.77995
 O401 O 0.71410 0.25109 0.68207
 O402 O 0.75051 0.22060 0.67412
 O403 O 0.75008 0.21323 0.81873
 O404 O 0.72092 0.25005 0.82603
 O405 O 0.81902 0.25031 0.78737
 O406 O 0.82486 0.28137 0.75052
 O407 O 0.78772 0.18181 0.74973
 O408 O 0.75090 0.17450 0.72056
 Zr409 Zr 0.75187 0.20286 0.75112
 O410 O 0.72696 0.22541 0.72672
 Zr411 Zr 0.79806 0.24933 0.75142
 O412 O 0.77537 0.27366 0.72642
 Zr413 Zr 0.75150 0.24901 0.79766
 O414 O 0.72700 0.27382 0.77504
 Zr415 Zr 0.74988 0.25069 0.70320
 O416 O 0.77512 0.22604 0.72562
 Zr417 Zr 0.70363 0.25078 0.74975
 O418 O 0.72613 0.22570 0.77447
 Zr419 Zr 0.75009 0.29704 0.74957
 O420 O 0.77483 0.27463 0.77476
 O421 O 0.77623 0.22469 0.77581
 O422 O 0.72523 0.27547 0.72492
 C423 C 0.74957 0.18915 0.81094
 C424 C 0.81182 0.18960 0.74875
 C425 C 0.81126 0.25098 0.81148
 C426 C 0.74963 0.31040 0.68960
 C427 C 0.69000 0.25102 0.68983
 C428 C 0.69021 0.31066 0.74954
 H429 H 0.71596 0.21343 0.71599
 H430 H 0.71617 0.28472 0.78702
 H431 H 0.78752 0.21335 0.78701
 H432 H 0.78720 0.28442 0.71525
 H433 H 0.79403 0.23914 0.68054
 H434 H 0.82322 0.25804 0.70781
 H435 H 0.67810 0.26326 0.79242
 H436 H 0.70721 0.23758 0.81990
 H437 H 0.73664 0.20758 0.67842
 H438 H 0.76331 0.18070 0.70681
 H439 H 0.73829 0.32245 0.79244
 H440 H 0.76224 0.29327 0.82017
 H441 H 0.70758 0.18028 0.76166
 H442 H 0.67822 0.20793 0.73787
 H443 H 0.81956 0.29365 0.76475
 H444 H 0.79272 0.32250 0.73683
 O445 O 0.25125 0.82005 0.78722
 O446 O 0.28013 0.82748 0.75061
 O447 O 0.18223 0.78820 0.74901
 O448 O 0.17267 0.75403 0.72303
 O449 O 0.21396 0.75118 0.81901
 O450 O 0.25067 0.72229 0.82642
 O451 O 0.25110 0.71504 0.68216
 O452 O 0.22042 0.75060 0.67550
 O453 O 0.31895 0.75050 0.71408
 O454 O 0.32720 0.78032 0.75124
 O455 O 0.28677 0.68340 0.74984
 O456 O 0.24903 0.67541 0.77965
 O457 O 0.25134 0.68351 0.71411
 O458 O 0.22108 0.67564 0.75170
 O459 O 0.31875 0.71490 0.74985
 O460 O 0.32653 0.75299 0.78004
 O461 O 0.28721 0.74974 0.68231
 O462 O 0.25555 0.77988 0.67378
 O463 O 0.25115 0.78822 0.81894
 O464 O 0.28002 0.75150 0.82641
 O465 O 0.18235 0.75154 0.78704
 O466 O 0.17615 0.72104 0.74994
 O467 O 0.21385 0.82007 0.75045
 O468 O 0.25217 0.82797 0.72148
 Zr469 Zr 0.24974 0.79893 0.75139
 O470 O 0.27432 0.77611 0.72682
 Zr471 Zr 0.20342 0.75266 0.75123
 O472 O 0.22597 0.72795 0.72656
 Zr473 Zr 0.24969 0.75258 0.79778
 O474 O 0.27428 0.72782 0.77522
 Zr475 Zr 0.25155 0.75072 0.70335
 O476 O 0.22652 0.77598 0.72552
 Zr477 Zr 0.29774 0.75076 0.74984
 O478 O 0.27528 0.77581 0.77470
 Zr479 Zr 0.25112 0.70460 0.74985
 O480 O 0.22629 0.72718 0.77475
 O481 O 0.22521 0.77709 0.77588
 O482 O 0.27609 0.72597 0.72515
 C483 C 0.25181 0.81236 0.81136
 C484 C 0.18974 0.81235 0.74911
 C485 C 0.18984 0.75077 0.81122
 C486 C 0.25121 0.69096 0.68992
 C487 C 0.31134 0.74996 0.68993
 C488 C 0.31097 0.69082 0.74984
 H489 H 0.28505 0.78798 0.71565
 H490 H 0.28510 0.71693 0.78723
 H491 H 0.21391 0.78838 0.78711
 H492 H 0.21407 0.71723 0.71544
 H493 H 0.20873 0.76559 0.67998
 H494 H 0.17920 0.74510 0.70696
 H495 H 0.32320 0.73842 0.79258
 H496 H 0.29399 0.76364 0.82017
 H497 H 0.24518 0.79523 0.67972
 H498 H 0.23669 0.82566 0.70979
 H499 H 0.26308 0.67914 0.79267
 H500 H 0.23850 0.70836 0.82017
 H501 H 0.29413 0.82106 0.76264
 H502 H 0.32287 0.79366 0.73768
 H503 H 0.18141 0.70844 0.76390
 H504 H 0.20837 0.67928 0.73734
 O505 O 0.24875 0.31752 0.71333
 O506 O 0.22006 0.32519 0.74990
 O507 O 0.31800 0.28593 0.75129
 O508 O 0.32749 0.25172 0.77736
 O509 O 0.28606 0.24882 0.68141
 O510 O 0.24938 0.21987 0.67409
 O511 O 0.24907 0.21295 0.81827
 O512 O 0.27984 0.24822 0.82494
 O513 O 0.18130 0.24834 0.78653
 O514 O 0.17309 0.27820 0.74916
 O515 O 0.21318 0.18100 0.75079
 O516 O 0.25096 0.17302 0.72094
 O517 O 0.24876 0.18113 0.78660
 O518 O 0.27899 0.17326 0.74891
 O519 O 0.18146 0.21277 0.75081
 O520 O 0.17341 0.25058 0.72073
 O521 O 0.21311 0.24763 0.81823
 O522 O 0.24488 0.27778 0.82658
 O523 O 0.24886 0.28591 0.68141
 O524 O 0.21994 0.24908 0.67414
 O525 O 0.31772 0.24920 0.71332
 O526 O 0.32399 0.21868 0.75034
 O527 O 0.28614 0.31757 0.74999
 O528 O 0.24787 0.32564 0.77891
 Zr529 Zr 0.25034 0.29651 0.74909
 O530 O 0.22583 0.27383 0.77372
 Zr531 Zr 0.29675 0.25033 0.74916
 O532 O 0.27419 0.22564 0.77388
 Zr533 Zr 0.25036 0.25022 0.70267
 O534 O 0.22581 0.22550 0.72535
 Zr535 Zr 0.24870 0.24851 0.79709
 O536 O 0.27370 0.27368 0.77489
 Zr537 Zr 0.20243 0.24852 0.75072
 O538 O 0.22480 0.27348 0.72577
 Zr539 Zr 0.24894 0.20221 0.75074
 O540 O 0.27375 0.22481 0.72576
 O541 O 0.27487 0.27472 0.72455
 O542 O 0.22407 0.22373 0.77542
 C543 C 0.24817 0.31000 0.68916
 C544 C 0.31028 0.31004 0.75126
 C545 C 0.31018 0.24843 0.68916
 C546 C 0.24892 0.18882 0.81073
 C547 C 0.18897 0.24787 0.81066
 C548 C 0.18904 0.18865 0.75082
 H549 H 0.21513 0.28574 0.78488
 H550 H 0.21495 0.21461 0.71337
 H551 H 0.28613 0.28603 0.71330
 H552 H 0.28610 0.21492 0.78502
 H553 H 0.29167 0.26307 0.82037
 H554 H 0.32109 0.24255 0.79334
 H555 H 0.17693 0.23623 0.70799
 H556 H 0.20602 0.26129 0.68036
 H557 H 0.25564 0.29292 0.82077
 H558 H 0.26336 0.32342 0.79060
 H559 H 0.23691 0.17679 0.70793
 H560 H 0.26156 0.20596 0.68038
 H561 H 0.20597 0.31877 0.73799
 H562 H 0.17722 0.29136 0.76296
 H563 H 0.31861 0.20604 0.73647
 H564 H 0.29171 0.17691 0.76326
 O565 O 0.75074 0.68167 0.71390
 O566 O 0.77953 0.67402 0.75051
 O567 O 0.68157 0.71337 0.75199
 O568 O 0.67211 0.74755 0.77812
 O569 O 0.71372 0.75063 0.68232
 O570 O 0.75037 0.77950 0.67496
 O571 O 0.75065 0.78624 0.81921
 O572 O 0.71985 0.75095 0.82577
 O573 O 0.81825 0.75074 0.78718
 O574 O 0.82662 0.72105 0.74999
 O575 O 0.78651 0.81814 0.75170
 O576 O 0.74862 0.82610 0.72171
 O577 O 0.75094 0.81789 0.78736
 O578 O 0.72088 0.82612 0.74992
 O579 O 0.81821 0.78636 0.75163
 O580 O 0.82610 0.74844 0.72138
 O581 O 0.78668 0.75146 0.81913
 O582 O 0.75480 0.72126 0.82731
 O583 O 0.75081 0.71361 0.68229
 O584 O 0.77967 0.75034 0.67494
 O585 O 0.68180 0.75010 0.71398
 O586 O 0.67568 0.78066 0.75115
 O587 O 0.71339 0.68168 0.75065
 O588 O 0.75162 0.67349 0.77953
 Zr589 Zr 0.74923 0.70267 0.74976
 O590 O 0.77377 0.72531 0.77445
 Zr591 Zr 0.70284 0.74894 0.74990
 O592 O 0.72548 0.77353 0.77469
 Zr593 Zr 0.74932 0.74916 0.70355
 O594 O 0.77391 0.77378 0.72616
 Zr595 Zr 0.75100 0.75066 0.79794
 O596 O 0.72593 0.72556 0.77562
 Zr597 Zr 0.79717 0.75063 0.75146
 O598 O 0.77480 0.72573 0.72651
 Zr599 Zr 0.75074 0.79696 0.75156
 O600 O 0.72587 0.77450 0.72657
 O601 O 0.72475 0.72459 0.72528
 O602 O 0.77561 0.77541 0.77621
 C603 C 0.75139 0.68946 0.68980
 C604 C 0.68925 0.68925 0.75193
 C605 C 0.68955 0.75095 0.68986
 C606 C 0.75079 0.81033 0.81151
 C607 C 0.81078 0.75121 0.81135
 C608 C 0.81065 0.81048 0.75171
 H609 H 0.78446 0.71337 0.78558
 H610 H 0.78477 0.78468 0.71420
 H611 H 0.71348 0.71333 0.71399
 H612 H 0.71359 0.78425 0.78583
 H613 H 0.70800 0.73611 0.82117
 H614 H 0.67858 0.75662 0.79413
 H615 H 0.82282 0.76302 0.70885
 H616 H 0.79362 0.73813 0.68111
 H617 H 0.74392 0.70620 0.82150
 H618 H 0.73619 0.67578 0.79127
 H619 H 0.76293 0.82260 0.70891
 H620 H 0.73823 0.79345 0.68124
 H621 H 0.79355 0.68041 0.73850
 H622 H 0.82229 0.70768 0.76352
 H623 H 0.68102 0.79325 0.73721
 H624 H 0.70792 0.82220 0.76398
 O625 O 0.24923 0.68165 0.28605
 O626 O 0.22081 0.67403 0.24926
 O627 O 0.31832 0.71364 0.24845
 O628 O 0.32845 0.74794 0.22312
 O629 O 0.28609 0.75037 0.31839
 O630 O 0.24953 0.77905 0.32587
 O631 O 0.24917 0.78629 0.18130
 O632 O 0.27983 0.75184 0.17413
 O633 O 0.18186 0.75106 0.21317
 O634 O 0.17326 0.72155 0.25064
 O635 O 0.21388 0.81828 0.24873
 O636 O 0.25127 0.82665 0.27826
 O637 O 0.24931 0.81809 0.21298
 O638 O 0.27982 0.82571 0.25089
 O639 O 0.18191 0.78678 0.24872
 O640 O 0.17395 0.74894 0.27903
 O641 O 0.21350 0.75122 0.18129
 O642 O 0.24984 0.72060 0.17342
 O643 O 0.24902 0.71322 0.31803
 O644 O 0.21990 0.75018 0.32522
 O645 O 0.31811 0.75008 0.28684
 O646 O 0.32411 0.78121 0.25000
 O647 O 0.28665 0.68175 0.24905
 O648 O 0.24987 0.67450 0.21989
 Zr649 Zr 0.25089 0.70289 0.25042
 O650 O 0.22615 0.72551 0.22594
 Zr651 Zr 0.29724 0.74923 0.25084
 O652 O 0.27474 0.77361 0.22575
 Zr653 Zr 0.25058 0.74902 0.29697
 O654 O 0.22627 0.77391 0.27427
 Zr655 Zr 0.24922 0.75071 0.20249
 O656 O 0.27430 0.72599 0.22499
 Zr657 Zr 0.20288 0.75095 0.24894
 O658 O 0.22519 0.72579 0.27373
 Zr659 Zr 0.24950 0.79706 0.24884
 O660 O 0.27405 0.77458 0.27414
 O661 O 0.27528 0.72463 0.27517
 O662 O 0.22461 0.77557 0.22415
 C663 C 0.24847 0.68913 0.31023
 C664 C 0.31075 0.68949 0.24807
 C665 C 0.31029 0.75076 0.31093
 C666 C 0.24920 0.81042 0.18885
 C667 C 0.18939 0.75121 0.18901
 C668 C 0.18970 0.81083 0.24867
 H669 H 0.21514 0.71356 0.21520
 H670 H 0.21544 0.78486 0.28623
 H671 H 0.28651 0.71325 0.28638
 H672 H 0.28663 0.78432 0.21460
 H673 H 0.29339 0.73902 0.17994
 H674 H 0.32259 0.75774 0.20731
 H675 H 0.17732 0.76350 0.29157
 H676 H 0.20621 0.73766 0.31911
 H677 H 0.23587 0.70767 0.17765
 H678 H 0.26228 0.68069 0.20612
 H679 H 0.23779 0.82246 0.29173
 H680 H 0.26138 0.79322 0.31954
 H681 H 0.20653 0.68044 0.26095
 H682 H 0.17734 0.70818 0.23703
 H683 H 0.31890 0.79343 0.26431
 H684 H 0.29219 0.82244 0.23614
 O685 O 0.75121 0.31891 0.28664
 O686 O 0.78003 0.32647 0.25006
 O687 O 0.68229 0.28687 0.24843
 O688 O 0.67271 0.25263 0.22261
 O689 O 0.71411 0.25004 0.31850
 O690 O 0.75088 0.22115 0.32588
 O691 O 0.75133 0.21400 0.18167
 O692 O 0.72048 0.24939 0.17499
 O693 O 0.81902 0.24968 0.21354
 O694 O 0.82716 0.27953 0.25079
 O695 O 0.78704 0.18247 0.24931
 O696 O 0.74937 0.17433 0.27913
 O697 O 0.75163 0.18247 0.21364
 O698 O 0.72141 0.17448 0.25121
 O699 O 0.81894 0.21406 0.24924
 O700 O 0.82671 0.25206 0.27943
 O701 O 0.78726 0.24882 0.18178
 O702 O 0.75548 0.27884 0.17327
 O703 O 0.75125 0.28709 0.31837
 O704 O 0.78013 0.25044 0.32590
 O705 O 0.68249 0.25032 0.28654
 O706 O 0.67638 0.21969 0.24947
 O707 O 0.71382 0.31883 0.24991
 O708 O 0.75210 0.32687 0.22095
 Zr709 Zr 0.74974 0.29781 0.25085
 O710 O 0.77436 0.27509 0.22627
 Zr711 Zr 0.70353 0.25141 0.25073
 O712 O 0.72613 0.22679 0.22605
 Zr713 Zr 0.74982 0.25146 0.29725
 O714 O 0.77448 0.22681 0.27469
 Zr715 Zr 0.75162 0.24966 0.20284
 O716 O 0.72654 0.27481 0.22502
 Zr717 Zr 0.79784 0.24983 0.24930
 O718 O 0.77533 0.27478 0.27418
 Zr719 Zr 0.75134 0.20354 0.24936
 O720 O 0.72645 0.22600 0.27427
 O721 O 0.72527 0.27591 0.27535
 O722 O 0.77623 0.22499 0.22464
 C723 C 0.75184 0.31121 0.31077
 C724 C 0.68976 0.31103 0.24854
 C725 C 0.68999 0.24960 0.31072
 C726 C 0.75151 0.18993 0.18946
 C727 C 0.81139 0.24914 0.18940
 C728 C 0.81120 0.18998 0.24924
 H729 H 0.78504 0.28701 0.21510
 H730 H 0.78533 0.21594 0.28670
 H731 H 0.71395 0.28718 0.28658
 H732 H 0.71425 0.21603 0.21493
 H733 H 0.70871 0.26432 0.17948
 H734 H 0.67927 0.24381 0.20650
 H735 H 0.82338 0.23753 0.29201
 H736 H 0.79412 0.26255 0.31963
 H737 H 0.74495 0.29411 0.17917
 H738 H 0.73663 0.32454 0.20926
 H739 H 0.76340 0.17812 0.29217
 H740 H 0.73867 0.20724 0.31967
 H741 H 0.79405 0.32010 0.26207
 H742 H 0.82289 0.29277 0.23711
 H743 H 0.68163 0.20716 0.26349
 H744 H 0.70867 0.17808 0.23687
 C745 C 0.25088 0.10311 0.08932
 C746 C 0.25000 0.08907 0.11616
 C747 C 0.25002 0.10594 0.13715
 C748 C 0.25093 0.13515 0.12920
 C749 C 0.22734 0.13895 0.11058
 C750 C 0.22732 0.12212 0.08964
 C751 C 0.27536 0.12090 0.09057
 C752 C 0.27538 0.13773 0.11152
 C753 C 0.25084 0.08537 0.06644
 C754 C 0.25078 0.07163 0.04700
 C755 C 0.25088 0.15366 0.15148
 C756 C 0.25060 0.16957 0.16917
 H757 H 0.24941 0.06780 0.11847
 H758 H 0.24944 0.09911 0.15745
 H759 H 0.21196 0.15355 0.11360
 H760 H 0.21192 0.12232 0.07473
 H761 H 0.29131 0.12029 0.07628
 H762 H 0.29135 0.15153 0.11516
 C763 C 0.75181 0.60358 0.58968
 C764 C 0.74806 0.58968 0.61634
 C765 C 0.74822 0.60649 0.63736
 C766 C 0.75213 0.63550 0.62959
 C767 C 0.73015 0.64130 0.60957
 C768 C 0.72999 0.62453 0.58860
 C769 C 0.77761 0.61918 0.59250
 C770 C 0.77777 0.63596 0.61348
 C771 C 0.75160 0.58589 0.56684
 C772 C 0.75141 0.57208 0.54750
 C773 C 0.75222 0.65391 0.65186
 C774 C 0.75203 0.66979 0.66954
 H775 H 0.74550 0.56854 0.61851
 H776 H 0.74581 0.59976 0.65755
 H777 H 0.71593 0.65718 0.61169
 H778 H 0.71563 0.62604 0.57277
 H779 H 0.79430 0.61719 0.57922
 H780 H 0.79461 0.64835 0.61817
 C781 C 0.74840 0.91032 0.10233
 C782 C 0.72338 0.90835 0.11930
 C783 C 0.72323 0.88717 0.13582
 C784 C 0.74811 0.87003 0.13377
 C785 C 0.77119 0.88902 0.13861
 C786 C 0.77134 0.91018 0.12209
 C787 C 0.75026 0.88375 0.08792
 C788 C 0.75011 0.86253 0.10448
 C789 C 0.74859 0.93339 0.08491
 C790 C 0.74879 0.95291 0.07134
 C791 C 0.74805 0.84754 0.15196
 C792 C 0.74828 0.82976 0.16773
 H793 H 0.70718 0.92233 0.11838
 H794 H 0.70690 0.88301 0.14906
 H795 H 0.78614 0.88608 0.15368
 H796 H 0.78641 0.92537 0.12301
 H797 H 0.75158 0.88178 0.06662
 H798 H 0.75130 0.84237 0.09738
 C799 C 0.24744 0.41063 0.60376
 C800 C 0.22240 0.40864 0.62069
 C801 C 0.22229 0.38753 0.63731
 C802 C 0.24724 0.37046 0.63538
 C803 C 0.27024 0.38956 0.64018
 C804 C 0.27034 0.41066 0.62357
 C805 C 0.24942 0.38400 0.58947
 C806 C 0.24932 0.36285 0.60612
 C807 C 0.24759 0.43362 0.58621
 C808 C 0.24775 0.45301 0.57246
 C809 C 0.24721 0.34804 0.65366
 C810 C 0.24747 0.33028 0.66947
 H811 H 0.20616 0.42257 0.61969
 H812 H 0.20596 0.38338 0.65054
 H813 H 0.28517 0.38674 0.65529
 H814 H 0.28536 0.42590 0.62445
 H815 H 0.25079 0.38194 0.56819
 H816 H 0.25059 0.34266 0.59911
 C817 C 0.74863 0.08981 0.89782
 C818 C 0.76854 0.08699 0.87518
 C819 C 0.76848 0.10774 0.85815
 C820 C 0.74852 0.12931 0.86539
 C821 C 0.75532 0.13704 0.89391
 C822 C 0.75537 0.11623 0.91098
 C823 C 0.72191 0.09432 0.88428
 C824 C 0.72185 0.11509 0.86723
 C825 C 0.74873 0.06714 0.91576
 C826 C 0.74884 0.04784 0.92963
 C827 C 0.74856 0.15137 0.84670
 C828 C 0.74884 0.16892 0.83067
 H829 H 0.78158 0.07017 0.87275
 H830 H 0.78147 0.10869 0.84113
 H831 H 0.75968 0.15705 0.90012
 H832 H 0.75977 0.11841 0.93183
 H833 H 0.70454 0.08230 0.88782
 H834 H 0.70443 0.12086 0.85616
 C835 C 0.24737 0.58971 0.39709
 C836 C 0.24974 0.61660 0.41082
 C837 C 0.24971 0.63740 0.39374
 C838 C 0.24731 0.62923 0.36466
 C839 C 0.22218 0.61239 0.36327
 C840 C 0.22221 0.59163 0.38032
 C841 C 0.27011 0.58905 0.37710
 C842 C 0.27008 0.60980 0.36006
 C843 C 0.24743 0.56706 0.41507
 C844 C 0.24753 0.54782 0.42904
 C845 C 0.24737 0.65131 0.34596
 C846 C 0.24769 0.66889 0.32996
 H847 H 0.25130 0.61907 0.43204
 H848 H 0.25125 0.65771 0.40034
 H849 H 0.20578 0.61645 0.35009
 H850 H 0.20583 0.57789 0.38174
 H851 H 0.28496 0.57363 0.37641
 H852 H 0.28491 0.61216 0.34478
 C853 C 0.25224 0.89899 0.91109
 C854 C 0.25033 0.91284 0.88421
 C855 C 0.25050 0.89588 0.86330
 C856 C 0.25257 0.86675 0.87137
 C857 C 0.22951 0.86226 0.89049
 C858 C 0.22934 0.87919 0.91135
 C859 C 0.27729 0.88203 0.90942
 C860 C 0.27746 0.86510 0.88856
 C861 C 0.25201 0.91683 0.93388
 C862 C 0.25176 0.93063 0.95327
 C863 C 0.25266 0.84814 0.84919
 C864 C 0.25246 0.83214 0.83158
 H865 H 0.24898 0.93407 0.88182
 H866 H 0.24929 0.90257 0.84299
 H867 H 0.21459 0.84713 0.88786
 H868 H 0.21427 0.87854 0.92657
 H869 H 0.29349 0.88326 0.92339
 H870 H 0.29381 0.85182 0.88465
 C871 C 0.75219 0.39730 0.41065
 C872 C 0.74918 0.41123 0.38392
 C873 C 0.74937 0.39438 0.36293
 C874 C 0.75256 0.36532 0.37081
 C875 C 0.73014 0.35999 0.39046
 C876 C 0.72995 0.37679 0.41139
 C877 C 0.77772 0.38118 0.40830
 C878 C 0.77792 0.36436 0.38735
 C879 C 0.75195 0.41502 0.43347
 C880 C 0.75170 0.42884 0.45279
 C881 C 0.75267 0.34686 0.34858
 C882 C 0.75248 0.33094 0.33095
 H883 H 0.74709 0.43242 0.38168
 H884 H 0.74744 0.40112 0.34269
 H885 H 0.71565 0.34439 0.38811
 H886 H 0.71530 0.37560 0.42698
 H887 H 0.79422 0.38286 0.42187
 H888 H 0.79458 0.35163 0.38296
 C889 C 0.10253 0.25100 0.08890
 C890 C 0.08828 0.24892 0.11557
 C891 C 0.10497 0.24915 0.13672
 C892 C 0.13421 0.25143 0.12906
 C893 C 0.13594 0.27635 0.11198
 C894 C 0.11929 0.27613 0.09087
 C895 C 0.12251 0.22826 0.08885
 C896 C 0.13914 0.22848 0.10994
 C897 C 0.08498 0.25073 0.06589
 C898 C 0.07133 0.25048 0.04640
 C899 C 0.15253 0.25158 0.15149
 C900 C 0.16836 0.25143 0.16924
 H901 H 0.06701 0.24742 0.11765
 H902 H 0.09799 0.24784 0.15693
 H903 H 0.14906 0.29277 0.11612
 H904 H 0.11815 0.29235 0.07694
 H905 H 0.12347 0.21326 0.07359
 H906 H 0.15436 0.21367 0.11275
 C907 C 0.60396 0.75032 0.58933
 C908 C 0.58977 0.74817 0.61602
 C909 C 0.60647 0.74858 0.63714
 C910 C 0.63568 0.75109 0.62944
 C911 C 0.63718 0.77600 0.61231
 C912 C 0.62051 0.77559 0.59123
 C913 C 0.62413 0.72774 0.58929
 C914 C 0.64079 0.72815 0.61036
 C915 C 0.58636 0.74985 0.56638
 C916 C 0.57258 0.74947 0.54700
 C917 C 0.65400 0.75144 0.65184
 C918 C 0.66984 0.75142 0.66958
 H919 H 0.56851 0.74649 0.61814
 H920 H 0.59953 0.74724 0.65737
 H921 H 0.65016 0.79253 0.61640
 H922 H 0.61921 0.79177 0.57726
 H923 H 0.62520 0.71272 0.57406
 H924 H 0.65614 0.71347 0.61318
 C925 C 0.08951 0.75006 0.89716
 C926 C 0.11621 0.75303 0.91119
 C927 C 0.13727 0.75297 0.89439
 C928 C 0.12950 0.74994 0.86525
 C929 C 0.10982 0.77234 0.85999
 C930 C 0.08882 0.77240 0.87675
 C931 C 0.09198 0.72466 0.88087
 C932 C 0.11299 0.72460 0.86411
 C933 C 0.06658 0.75013 0.91482
 C934 C 0.04711 0.75019 0.92851
 C935 C 0.15183 0.74994 0.84681
 C936 C 0.16954 0.75016 0.83093
 H937 H 0.11838 0.75500 0.93242
 H938 H 0.15749 0.75489 0.90122
 H939 H 0.11220 0.78692 0.84448
 H940 H 0.07321 0.78702 0.87558
 H941 H 0.07844 0.70815 0.88241
 H942 H 0.11745 0.70803 0.85129
 C943 C 0.58981 0.24965 0.39674
 C944 C 0.58806 0.27047 0.37484
 C945 C 0.60902 0.27022 0.35805
 C946 C 0.62972 0.24917 0.36477
 C947 C 0.61441 0.22307 0.36545
 C948 C 0.59343 0.22333 0.38225
 C949 C 0.61635 0.25482 0.41044
 C950 C 0.63737 0.25457 0.39360
 C951 C 0.56694 0.24994 0.41447
 C952 C 0.54759 0.25016 0.42830
 C953 C 0.65202 0.24898 0.34632
 C954 C 0.66971 0.24908 0.33043
 H955 H 0.57178 0.28424 0.37273
 H956 H 0.61071 0.28378 0.34156
 H957 H 0.61963 0.20588 0.35379
 H958 H 0.58067 0.20635 0.38499
 H959 H 0.61844 0.25834 0.43146
 H960 H 0.65748 0.25788 0.40020
 C961 C 0.91092 0.74801 0.10090
 C962 C 0.90805 0.77338 0.11715
 C963 C 0.88711 0.77309 0.13399
 C964 C 0.87106 0.74745 0.13296
 C965 C 0.89116 0.72542 0.13820
 C966 C 0.91210 0.72572 0.12136
 C967 C 0.88423 0.74452 0.08697
 C968 C 0.86324 0.74423 0.10385
 C969 C 0.93379 0.74837 0.08317
 C970 C 0.95323 0.74871 0.06944
 C971 C 0.84880 0.74723 0.15148
 C972 C 0.83116 0.74733 0.16743
 H973 H 0.92128 0.79014 0.11553
 H974 H 0.88241 0.78960 0.14679
 H975 H 0.88910 0.71084 0.15374
 H976 H 0.92798 0.71138 0.12248
 H977 H 0.88202 0.74248 0.06576
 H978 H 0.84303 0.74193 0.09710
 C979 C 0.41032 0.24865 0.60309
 C980 C 0.40870 0.22360 0.62001
 C981 C 0.38772 0.22329 0.63682
 C982 C 0.37041 0.24805 0.63507
 C983 C 0.36250 0.25010 0.60588
 C984 C 0.38352 0.25041 0.58904
 C985 C 0.41032 0.27150 0.62292
 C986 C 0.38936 0.27119 0.63972
 C987 C 0.43318 0.24902 0.58537
 C988 C 0.45253 0.24936 0.57155
 C989 C 0.34812 0.24781 0.65353
 C990 C 0.33044 0.24790 0.66943
 H991 H 0.42277 0.20749 0.61885
 H992 H 0.38382 0.20691 0.65006
 H993 H 0.34222 0.25119 0.59905
 H994 H 0.38125 0.25177 0.56778
 H995 H 0.42545 0.28665 0.62368
 H996 H 0.38653 0.28607 0.65487
 C997 C 0.89828 0.25120 0.91088
 C998 C 0.91160 0.24568 0.88423
 C999 C 0.89450 0.24587 0.86342
 C1000 C 0.86580 0.25156 0.87136
 C1001 C 0.86686 0.27780 0.88642
 C1002 C 0.88393 0.27761 0.90719
 C1003 C 0.87623 0.23058 0.91309
 C1004 C 0.85917 0.23077 0.89233
 C1005 C 0.91624 0.25097 0.93357
 C1006 C 0.93012 0.25075 0.95290
 C1007 C 0.84707 0.25168 0.84929
 C1008 C 0.83102 0.25153 0.83172
 H1009 H 0.93258 0.24198 0.88191
 H1010 H 0.90083 0.24233 0.84326
 H1011 H 0.85528 0.29503 0.88119
 H1012 H 0.88697 0.29468 0.91975
 H1013 H 0.87421 0.21697 0.92951
 H1014 H 0.84255 0.21732 0.89098
 C1015 C 0.39708 0.75033 0.41046
 C1016 C 0.41065 0.74641 0.38365
 C1017 C 0.39358 0.74674 0.36282
 C1018 C 0.36467 0.75096 0.37091
 C1019 C 0.36466 0.77660 0.38699
 C1020 C 0.38170 0.77627 0.40778
 C1021 C 0.37589 0.72877 0.41180
 C1022 C 0.35886 0.72909 0.39102
 C1023 C 0.41505 0.74996 0.43313
 C1024 C 0.42902 0.74966 0.45236
 C1025 C 0.34599 0.75123 0.34881
 C1026 C 0.32999 0.75119 0.33121
 H1027 H 0.43176 0.74364 0.38124
 H1028 H 0.40006 0.74424 0.34255
 H1029 H 0.35239 0.79354 0.38241
 H1030 H 0.38403 0.79294 0.42101
 H1031 H 0.37441 0.71445 0.42766
 H1032 H 0.34279 0.71506 0.38909
 C1033 C 0.10157 0.08913 0.25198
 C1034 C 0.08748 0.11589 0.25023
 C1035 C 0.10431 0.13690 0.25043
 C1036 C 0.13353 0.12902 0.25235
 C1037 C 0.13809 0.11004 0.22921
 C1038 C 0.12130 0.08909 0.22901
 C1039 C 0.11861 0.09081 0.27697
 C1040 C 0.13540 0.11177 0.27717
 C1041 C 0.08390 0.06626 0.25174
 C1042 C 0.07021 0.04683 0.25148
 C1043 C 0.15199 0.15127 0.25246
 C1044 C 0.16793 0.16890 0.25225
 H1045 H 0.06621 0.11813 0.24896
 H1046 H 0.09747 0.15715 0.24933
 H1047 H 0.15316 0.11285 0.21424
 H1048 H 0.12200 0.07395 0.21388
 H1049 H 0.11753 0.07679 0.29313
 H1050 H 0.14872 0.11571 0.29349
 C1051 C 0.60283 0.58948 0.75257
 C1052 C 0.58889 0.61629 0.75050
 C1053 C 0.60581 0.63722 0.75064
 C1054 C 0.63497 0.62924 0.75283
 C1055 C 0.63960 0.61005 0.72987
 C1056 C 0.62272 0.58917 0.72973
 C1057 C 0.61971 0.59129 0.77765
 C1058 C 0.63660 0.61219 0.77779
 C1059 C 0.58502 0.56670 0.75238
 C1060 C 0.57116 0.54739 0.75219
 C1061 C 0.65352 0.65144 0.75287
 C1062 C 0.66948 0.66905 0.75263
 H1063 H 0.56763 0.61862 0.74907
 H1064 H 0.59905 0.65750 0.74932
 H1065 H 0.65479 0.61267 0.71498
 H1066 H 0.62346 0.57391 0.71473
 H1067 H 0.61847 0.57741 0.79391
 H1068 H 0.64983 0.61620 0.79416
 C1069 C 0.91136 0.10266 0.74802
 C1070 C 0.88438 0.08891 0.74682
 C1071 C 0.86356 0.10600 0.74667
 C1072 C 0.87181 0.13513 0.74773
 C1073 C 0.89071 0.13880 0.72435
 C1074 C 0.91148 0.12175 0.72450
 C1075 C 0.91004 0.12040 0.77252
 C1076 C 0.88927 0.13744 0.77237
 C1077 C 0.93407 0.08470 0.74822
 C1078 C 0.95342 0.07084 0.74843
 C1079 C 0.84970 0.15385 0.74768
 C1080 C 0.83211 0.16987 0.74796
 H1081 H 0.88186 0.06767 0.74615
 H1082 H 0.84320 0.09939 0.74587
 H1083 H 0.88799 0.15348 0.70899
 H1084 H 0.92655 0.12183 0.70927
 H1085 H 0.92416 0.11960 0.78861
 H1086 H 0.88562 0.15124 0.78834
 C1087 C 0.41014 0.60273 0.24717
 C1088 C 0.41781 0.63128 0.25361
 C1089 C 0.39704 0.64827 0.25348
 C1090 C 0.37059 0.63510 0.24693
 C1091 C 0.36776 0.61270 0.26712
 C1092 C 0.38858 0.59566 0.26724
 C1093 C 0.39587 0.60424 0.22048
 C1094 C 0.37506 0.62128 0.22035
 C1095 C 0.43281 0.58481 0.24735
 C1096 C 0.45206 0.57088 0.24756
 C1097 C 0.34850 0.65375 0.24691
 C1098 C 0.33095 0.66976 0.24723
 H1099 H 0.43784 0.63759 0.25790
 H1100 H 0.39927 0.66915 0.25766
 H1101 H 0.35089 0.61039 0.28012
 H1102 H 0.38956 0.57875 0.28034
 H1103 H 0.40158 0.59289 0.20323
 H1104 H 0.36292 0.62454 0.20300
 C1105 C 0.08941 0.89832 0.74861
 C1106 C 0.09136 0.88154 0.72347
 C1107 C 0.11237 0.86477 0.72332
 C1108 C 0.12941 0.86641 0.74831
 C1109 C 0.11018 0.86162 0.77122
 C1110 C 0.08918 0.87837 0.77138
 C1111 C 0.11617 0.91238 0.75075
 C1112 C 0.13723 0.89558 0.75060
 C1113 C 0.06648 0.91600 0.74880
 C1114 C 0.04703 0.92973 0.74898
 C1115 C 0.15175 0.84797 0.74824
 C1116 C 0.16946 0.83208 0.74845
 H1117 H 0.07748 0.88275 0.70720
 H1118 H 0.11648 0.85163 0.70691
 H1119 H 0.11285 0.84640 0.78606
 H1120 H 0.07387 0.87751 0.78635
 H1121 H 0.11838 0.93361 0.75226
 H1122 H 0.15748 0.90243 0.75197
 C1123 C 0.58917 0.39636 0.24805
 C1124 C 0.59178 0.38037 0.22246
 C1125 C 0.61288 0.36374 0.22229
 C1126 C 0.62930 0.36471 0.24772
 C1127 C 0.60959 0.35911 0.27002
 C1128 C 0.58851 0.37574 0.27019
 C1129 C 0.61578 0.41049 0.25125
 C1130 C 0.63692 0.39383 0.25108
 C1131 C 0.56621 0.41391 0.24826
 C1132 C 0.54682 0.42765 0.24846
 C1133 C 0.65170 0.34644 0.24763
 C1134 C 0.66946 0.33066 0.24785
 H1135 H 0.57826 0.38201 0.20592
 H1136 H 0.61745 0.35112 0.20560
 H1137 H 0.61201 0.34346 0.28445
 H1138 H 0.57286 0.37434 0.28476
 H1139 H 0.61783 0.43169 0.25345
 H1140 H 0.65710 0.40073 0.25312
 C1141 C 0.89724 0.90938 0.25061
 C1142 C 0.87703 0.91001 0.27315
 C1143 C 0.86023 0.88905 0.27316
 C1144 C 0.86528 0.86949 0.25061
 C1145 C 0.89445 0.86167 0.25336
 C1146 C 0.91128 0.88268 0.25335
 C1147 C 0.88074 0.90705 0.22532
 C1148 C 0.86394 0.88609 0.22533
 C1149 C 0.91493 0.93225 0.25058
 C1150 C 0.92865 0.95165 0.25054
 C1151 C 0.84682 0.84722 0.25053
 C1152 C 0.83090 0.82958 0.25021
 H1153 H 0.87602 0.92554 0.28786
 H1154 H 0.84485 0.88663 0.28787
 H1155 H 0.90126 0.84145 0.25514
 H1156 H 0.93252 0.88047 0.25513
 H1157 H 0.88215 0.92064 0.20883
 H1158 H 0.85097 0.88174 0.20884
 C1159 C 0.39635 0.41013 0.75202
 C1160 C 0.37537 0.41147 0.77382
 C1161 C 0.35858 0.39051 0.77392
 C1162 C 0.36438 0.37023 0.75221
 C1163 C 0.39343 0.36253 0.75620
 C1164 C 0.41026 0.38353 0.75610
 C1165 C 0.38072 0.40699 0.72627
 C1166 C 0.36392 0.38603 0.72637
 C1167 C 0.41408 0.43299 0.75189
 C1168 C 0.42790 0.45233 0.75176
 C1169 C 0.34593 0.34795 0.75222
 C1170 C 0.33002 0.33028 0.75196
 H1171 H 0.37386 0.42746 0.78798
 H1172 H 0.34269 0.38855 0.78817
 H1173 H 0.40017 0.34238 0.75885
 H1174 H 0.43143 0.38140 0.75867
 H1175 H 0.38271 0.42005 0.70941
 H1176 H 0.35152 0.38114 0.70959
 C1177 C 0.10293 0.24864 0.91080
 C1178 C 0.12399 0.22694 0.91241
 C1179 C 0.14075 0.22662 0.89141
 C1180 C 0.13484 0.24803 0.87084
 C1181 C 0.13523 0.27405 0.88629
 C1182 C 0.11846 0.27437 0.90729
 C1183 C 0.08900 0.24416 0.88426
 C1184 C 0.10580 0.24383 0.86322
 C1185 C 0.08526 0.24903 0.93370
 C1186 C 0.07152 0.24938 0.95311
 C1187 C 0.15328 0.24776 0.84854
 C1188 C 0.16919 0.24772 0.83087
 H1189 H 0.12556 0.21302 0.92861
 H1190 H 0.15669 0.21242 0.88963
 H1191 H 0.14757 0.29078 0.88116
 H1192 H 0.11643 0.29138 0.92014
 H1193 H 0.06784 0.24149 0.88219
 H1194 H 0.09905 0.24088 0.84310
 C1195 C 0.60348 0.74755 0.40895
 C1196 C 0.58985 0.74179 0.38250
 C1197 C 0.60674 0.74157 0.36151
 C1198 C 0.63556 0.74714 0.36909
 C1199 C 0.64225 0.72656 0.39026
 C1200 C 0.62540 0.72678 0.41119
 C1201 C 0.61798 0.77378 0.40476
 C1202 C 0.63483 0.77357 0.38383
 C1203 C 0.58572 0.74783 0.43181
 C1204 C 0.57196 0.74812 0.45123
 C1205 C 0.65409 0.74699 0.34682
 C1206 C 0.67004 0.74703 0.32917
 H1207 H 0.56883 0.73820 0.38044
 H1208 H 0.60019 0.73779 0.34147
 H1209 H 0.65876 0.71297 0.38891
 H1210 H 0.62748 0.71337 0.42777
 H1211 H 0.61522 0.79104 0.41714
 H1212 H 0.64650 0.79064 0.37827
 C1213 C 0.91139 0.75096 0.89685
 C1214 C 0.91263 0.77280 0.87593
 C1215 C 0.89154 0.77298 0.85927
 C1216 C 0.87125 0.75130 0.86515
 C1217 C 0.86373 0.75522 0.89425
 C1218 C 0.88486 0.75504 0.91094
 C1219 C 0.90810 0.72528 0.88118
 C1220 C 0.88702 0.72546 0.86452
 C1221 C 0.93436 0.75074 0.91442
 C1222 C 0.95380 0.75052 0.92814
 C1223 C 0.84885 0.75142 0.84684
 C1224 C 0.83109 0.75140 0.83102
 H1225 H 0.92866 0.78692 0.87435
 H1226 H 0.88951 0.78725 0.84343
 H1227 H 0.84361 0.75789 0.90112
 H1228 H 0.88287 0.75756 0.93212
 H1229 H 0.92118 0.70842 0.88303
 H1230 H 0.88203 0.70874 0.85210
 C1231 C 0.40945 0.25111 0.39728
 C1232 C 0.41087 0.27275 0.37616
 C1233 C 0.38987 0.27285 0.35939
 C1234 C 0.36946 0.25130 0.36535
 C1235 C 0.36181 0.25552 0.39438
 C1236 C 0.38286 0.25541 0.41119
 C1237 C 0.40614 0.22530 0.38182
 C1238 C 0.38514 0.22540 0.36505
 C1239 C 0.43237 0.25096 0.41498
 C1240 C 0.45180 0.25079 0.42871
 C1241 C 0.34713 0.25135 0.34691
 C1242 C 0.32942 0.25127 0.33102
 H1243 H 0.42696 0.28680 0.37454
 H1244 H 0.38797 0.28699 0.34341
 H1245 H 0.34167 0.25833 0.40112
 H1246 H 0.38076 0.25814 0.43233
 H1247 H 0.41914 0.20841 0.38389
 H1248 H 0.38015 0.20859 0.35275
 C1249 C 0.08975 0.75051 0.10236
 C1250 C 0.08586 0.76891 0.12608
 C1251 C 0.10670 0.76917 0.14304
 C1252 C 0.12941 0.75100 0.13464
 C1253 C 0.13657 0.75979 0.10654
 C1254 C 0.11568 0.75954 0.08954
 C1255 C 0.09593 0.72343 0.11438
 C1256 C 0.11678 0.72369 0.13135
 C1257 C 0.06701 0.75021 0.08447
 C1258 C 0.04772 0.74994 0.07057
 C1259 C 0.15156 0.75121 0.15326
 C1260 C 0.16916 0.75127 0.16925
 H1261 H 0.06829 0.78075 0.12926
 H1262 H 0.10697 0.78122 0.16075
 H1263 H 0.15627 0.76568 0.10053
 H1264 H 0.11748 0.76520 0.06896
 H1265 H 0.08493 0.70561 0.10993
 H1266 H 0.12364 0.70608 0.14143
 C1267 C 0.59036 0.25072 0.60301
 C1268 C 0.58626 0.26864 0.62707
 C1269 C 0.60706 0.26879 0.64408
 C1270 C 0.62998 0.25100 0.63540
 C1271 C 0.63709 0.26038 0.60747
 C1272 C 0.61624 0.26023 0.59042
 C1273 C 0.59680 0.22349 0.61456
 C1274 C 0.61762 0.22364 0.63158
 C1275 C 0.56763 0.25053 0.58508
 C1276 C 0.54829 0.25035 0.57121
 C1277 C 0.65211 0.25111 0.65408
 C1278 C 0.66972 0.25111 0.67009
 H1279 H 0.56857 0.28024 0.63043
 H1280 H 0.60718 0.28051 0.66200
 H1281 H 0.65674 0.26658 0.60161
 H1282 H 0.61802 0.26630 0.56995
 H1283 H 0.58599 0.20564 0.60975
 H1284 H 0.62463 0.20592 0.64134
 C1285 C 0.89775 0.24959 0.08955
 C1286 C 0.88174 0.27511 0.09251
 C1287 C 0.86490 0.27489 0.11344
 C1288 C 0.86569 0.24918 0.12939
 C1289 C 0.89476 0.24564 0.13721
 C1290 C 0.91165 0.24586 0.11622
 C1291 C 0.87708 0.22750 0.08828
 C1292 C 0.86024 0.22729 0.10921
 C1293 C 0.91550 0.24984 0.06672
 C1294 C 0.92930 0.25006 0.04736
 C1295 C 0.84717 0.24900 0.15162
 C1296 C 0.83120 0.24899 0.16923
 H1297 H 0.88353 0.29190 0.07934
 H1298 H 0.85225 0.29151 0.11821
 H1299 H 0.90148 0.24319 0.15740
 H1300 H 0.93284 0.24360 0.11843
 H1301 H 0.87582 0.21324 0.07235
 H1302 H 0.84455 0.21284 0.11121
 C1303 C 0.39808 0.74927 0.59027
 C1304 C 0.37750 0.72708 0.58928
 C1305 C 0.36057 0.72713 0.61014
 C1306 C 0.36584 0.74936 0.63000
 C1307 C 0.36502 0.77482 0.61364
 C1308 C 0.38195 0.77477 0.59277
 C1309 C 0.41188 0.74602 0.61706
 C1310 C 0.39491 0.74607 0.63798
 C1311 C 0.41592 0.74925 0.56747
 C1312 C 0.42971 0.74926 0.54808
 C1313 C 0.34722 0.74946 0.65218
 C1314 C 0.33120 0.74964 0.66977
 H1315 H 0.37636 0.71257 0.57357
 H1316 H 0.34493 0.71266 0.61231
 H1317 H 0.35228 0.79145 0.61809
 H1318 H 0.38372 0.79136 0.57935
 H1319 H 0.43307 0.74388 0.61938
 H1320 H 0.40156 0.74396 0.65823
 C1321 C 0.24983 0.10319 0.91125
 C1322 C 0.25622 0.08958 0.88495
 C1323 C 0.25597 0.10627 0.86383
 C1324 C 0.24935 0.13491 0.87114
 C1325 C 0.26958 0.14246 0.89238
 C1326 C 0.26983 0.12580 0.91344
 C1327 C 0.22310 0.11672 0.90681
 C1328 C 0.22284 0.13339 0.88573
 C1329 C 0.25013 0.08560 0.93423
 C1330 C 0.25038 0.07189 0.95367
 C1331 C 0.24911 0.15324 0.84874
 C1332 C 0.24899 0.16909 0.83101
 H1333 H 0.26054 0.06869 0.88308
 H1334 H 0.26008 0.09970 0.84386
 H1335 H 0.28260 0.15940 0.89098
 H1336 H 0.28306 0.12849 0.93008
 H1337 H 0.20586 0.11346 0.91911
 H1338 H 0.20539 0.14440 0.87998
 C1339 C 0.75036 0.60263 0.40929
 C1340 C 0.72849 0.62352 0.41053
 C1341 C 0.72829 0.64015 0.38944
 C1342 C 0.74999 0.63429 0.36914
 C1343 C 0.74608 0.60521 0.36163
 C1344 C 0.74628 0.58854 0.38277
 C1345 C 0.77606 0.61830 0.40598
 C1346 C 0.77586 0.63494 0.38489
 C1347 C 0.75059 0.58510 0.43229
 C1348 C 0.75079 0.57147 0.45177
 C1349 C 0.74983 0.65259 0.34675
 C1350 C 0.74975 0.66844 0.32903
 H1351 H 0.71435 0.62509 0.42655
 H1352 H 0.71399 0.65597 0.38740
 H1353 H 0.74341 0.59834 0.34152
 H1354 H 0.74377 0.56738 0.38079
 H1355 H 0.79295 0.61646 0.41904
 H1356 H 0.79259 0.64734 0.37988
 C1357 C 0.75050 0.08962 0.10380
 C1358 C 0.77138 0.08746 0.12564
 C1359 C 0.77168 0.10848 0.14234
 C1360 C 0.75109 0.12961 0.13559
 C1361 C 0.72460 0.11494 0.13507
 C1362 C 0.72430 0.09392 0.11836
 C1363 C 0.75626 0.11594 0.08997
 C1364 C 0.75657 0.13701 0.10672
 C1365 C 0.75014 0.06672 0.08618
 C1366 C 0.74982 0.04734 0.07243
 C1367 C 0.75136 0.15194 0.15395
 C1368 C 0.75147 0.16965 0.16979
 H1369 H 0.78478 0.07089 0.12777
 H1370 H 0.78536 0.10992 0.15878
 H1371 H 0.70756 0.12059 0.14676
 H1372 H 0.70699 0.08156 0.11574
 H1373 H 0.75977 0.11785 0.06893
 H1374 H 0.76035 0.15698 0.10003
 C1375 C 0.24973 0.59095 0.60360
 C1376 C 0.27086 0.58875 0.62519
 C1377 C 0.27126 0.60965 0.64206
 C1378 C 0.25049 0.63075 0.63572
 C1379 C 0.22407 0.61593 0.63537
 C1380 C 0.22367 0.59503 0.61850
 C1381 C 0.25520 0.61741 0.58992
 C1382 C 0.25560 0.63836 0.60682
 C1383 C 0.24927 0.56811 0.58580
 C1384 C 0.24887 0.54873 0.57201
 C1385 C 0.25086 0.65299 0.65426
 C1386 C 0.25107 0.67066 0.67019
 H1387 H 0.28437 0.57223 0.62705
 H1388 H 0.28511 0.61103 0.65835
 H1389 H 0.20714 0.62141 0.64731
 H1390 H 0.20640 0.58261 0.61599
 H1391 H 0.25845 0.61950 0.56885
 H1392 H 0.25921 0.65840 0.60024
 C1393 C 0.74986 0.91014 0.89774
 C1394 C 0.77174 0.91164 0.87685
 C1395 C 0.77199 0.89073 0.86001
 C1396 C 0.75034 0.87035 0.86570
 C1397 C 0.72443 0.88601 0.86518
 C1398 C 0.72417 0.90692 0.88202
 C1399 C 0.75402 0.88354 0.91160
 C1400 C 0.75428 0.86258 0.89472
 C1401 C 0.74957 0.93293 0.91549
 C1402 C 0.74935 0.95225 0.92932
 C1403 C 0.75058 0.84814 0.84720
 C1404 C 0.75071 0.83053 0.83126
 H1405 H 0.78583 0.92771 0.87543
 H1406 H 0.78630 0.88888 0.84417
 H1407 H 0.70772 0.88107 0.85271
 H1408 H 0.70725 0.91991 0.88398
 H1409 H 0.75653 0.88137 0.93277
 H1410 H 0.75701 0.84243 0.90142
 C1411 C 0.24827 0.40998 0.39796
 C1412 C 0.26956 0.41192 0.37651
 C1413 C 0.26978 0.39105 0.35960
 C1414 C 0.24867 0.37024 0.36577
 C1415 C 0.22247 0.38543 0.36597
 C1416 C 0.22225 0.40630 0.38288
 C1417 C 0.25328 0.38342 0.41162
 C1418 C 0.25349 0.36250 0.39468
 C1419 C 0.24803 0.43279 0.41579
 C1420 C 0.24786 0.45216 0.42959
 C1421 C 0.24888 0.34804 0.34718
 C1422 C 0.24900 0.33042 0.33119
 H1423 H 0.28331 0.42825 0.37477
 H1424 H 0.28371 0.38951 0.34340
 H1425 H 0.20553 0.38021 0.35392
 H1426 H 0.20514 0.41896 0.38531
 H1427 H 0.25637 0.38124 0.43271
 H1428 H 0.25677 0.34239 0.40125
 C1429 C 0.25011 0.89760 0.08964
 C1430 C 0.24230 0.91052 0.11591
 C1431 C 0.24201 0.89339 0.13668
 C1432 C 0.24956 0.86505 0.12908
 C1433 C 0.27663 0.86744 0.11569
 C1434 C 0.27692 0.88454 0.09497
 C1435 C 0.23072 0.87462 0.08613
 C1436 C 0.23043 0.85753 0.10685
 C1437 C 0.25044 0.91563 0.06701
 C1438 C 0.25072 0.92959 0.04776
 C1439 C 0.24930 0.84629 0.15112
 C1440 C 0.24920 0.83022 0.16865
 H1441 H 0.23745 0.93127 0.11801
 H1442 H 0.23690 0.89945 0.15658
 H1443 H 0.29406 0.85668 0.12197
 H1444 H 0.29459 0.88843 0.08350
 H1445 H 0.21827 0.87202 0.06889
 H1446 H 0.21773 0.84029 0.10735
 C1447 C 0.75020 0.39752 0.59043
 C1448 C 0.74207 0.41038 0.61662
 C1449 C 0.74183 0.39327 0.63740
 C1450 C 0.74975 0.36501 0.62988
 C1451 C 0.77688 0.36769 0.61667
 C1452 C 0.77711 0.38477 0.59593
 C1453 C 0.73109 0.37432 0.58681
 C1454 C 0.73085 0.35725 0.60754
 C1455 C 0.75047 0.41549 0.56777
 C1456 C 0.75072 0.42935 0.54846
 C1457 C 0.74957 0.34627 0.65191
 C1458 C 0.74953 0.33019 0.66942
 H1459 H 0.73697 0.43107 0.61867
 H1460 H 0.73652 0.39929 0.65727
 H1461 H 0.79439 0.35714 0.62308
 H1462 H 0.79482 0.38885 0.58458
 H1463 H 0.71877 0.37157 0.56949
 H1464 H 0.71834 0.33988 0.60798
 C1465 C 0.08899 0.10247 0.74983
 C1466 C 0.09073 0.12010 0.72528
 C1467 C 0.11169 0.13690 0.72556
 C1468 C 0.12889 0.13446 0.75037
 C1469 C 0.13681 0.10525 0.75162
 C1470 C 0.11580 0.08841 0.75133
 C1471 C 0.08886 0.12162 0.77328
 C1472 C 0.10981 0.13843 0.77356
 C1473 C 0.06612 0.08475 0.74950
 C1474 C 0.04672 0.07098 0.74924
 C1475 C 0.15116 0.15294 0.75064
 C1476 C 0.16882 0.16887 0.75077
 H1477 H 0.07674 0.11941 0.70906
 H1478 H 0.11564 0.15061 0.70959
 H1479 H 0.15709 0.09841 0.75263
 H1480 H 0.11807 0.06714 0.75210
 H1481 H 0.07365 0.12193 0.78837
 H1482 H 0.11255 0.15313 0.78890
 C1483 C 0.59000 0.60179 0.24849
 C1484 C 0.59173 0.61919 0.22379
 C1485 C 0.61264 0.63605 0.22396
 C1486 C 0.62980 0.63386 0.24882
 C1487 C 0.63779 0.60469 0.25034
 C1488 C 0.61683 0.58780 0.25017
 C1489 C 0.58977 0.62115 0.27177
 C1490 C 0.61068 0.63800 0.27194
 C1491 C 0.56717 0.58403 0.24829
 C1492 C 0.54777 0.57029 0.24814
 C1493 C 0.65202 0.65239 0.24897
 C1494 C 0.66964 0.66834 0.24903
 H1495 H 0.57777 0.61833 0.20755
 H1496 H 0.61660 0.64962 0.20787
 H1497 H 0.65809 0.59791 0.25146
 H1498 H 0.61915 0.56654 0.25113
 H1499 H 0.57453 0.62155 0.28683
 H1500 H 0.61336 0.65284 0.28715
 C1501 C 0.10322 0.91047 0.24965
 C1502 C 0.12590 0.91355 0.22982
 C1503 C 0.14285 0.89272 0.22951
 C1504 C 0.13546 0.87083 0.24906
 C1505 C 0.10692 0.86335 0.24209
 C1506 C 0.08994 0.88424 0.24241
 C1507 C 0.11670 0.90541 0.27629
 C1508 C 0.13365 0.88457 0.27598
 C1509 C 0.08536 0.93318 0.25001
 C1510 C 0.07147 0.95246 0.25032
 C1511 C 0.15405 0.84869 0.24878
 C1512 C 0.17001 0.83109 0.24867
 H1513 H 0.12842 0.93060 0.21710
 H1514 H 0.15987 0.89192 0.21653
 H1515 H 0.10062 0.84345 0.23735
 H1516 H 0.06908 0.88224 0.23793
 H1517 H 0.11320 0.91713 0.29387
 H1518 H 0.14467 0.87844 0.29330
 C1519 C 0.60289 0.40983 0.75060
 C1520 C 0.62593 0.41339 0.73126
 C1521 C 0.64305 0.39269 0.73095
 C1522 C 0.63550 0.37042 0.75000
 C1523 C 0.60715 0.36285 0.74238
 C1524 C 0.58998 0.38360 0.74270
 C1525 C 0.61592 0.40444 0.77740
 C1526 C 0.63305 0.38374 0.77709
 C1527 C 0.58483 0.43246 0.75095
 C1528 C 0.57089 0.45174 0.75125
 C1529 C 0.65431 0.34840 0.74972
 C1530 C 0.67040 0.33088 0.74958
 H1531 H 0.62855 0.43064 0.71885
 H1532 H 0.66033 0.39224 0.71828
 H1533 H 0.60110 0.34298 0.73721
 H1534 H 0.56923 0.38150 0.73780
 H1535 H 0.61199 0.41586 0.79510
 H1536 H 0.64379 0.37743 0.79452
 C1537 C 0.89678 0.08959 0.24986
 C1538 C 0.87629 0.08864 0.22757
 C1539 C 0.85962 0.10969 0.22737
 C1540 C 0.86506 0.12965 0.24948
 C1541 C 0.89422 0.13725 0.24624
 C1542 C 0.91093 0.11615 0.24644
 C1543 C 0.88060 0.09248 0.27529
 C1544 C 0.86392 0.11354 0.27509
 C1545 C 0.91438 0.06667 0.25009
 C1546 C 0.92814 0.04730 0.25029
 C1547 C 0.84673 0.15201 0.24930
 C1548 C 0.83090 0.16972 0.24924
 H1549 H 0.87501 0.07283 0.21318
 H1550 H 0.84406 0.11192 0.21281
 H1551 H 0.90112 0.15738 0.24399
 H1552 H 0.93216 0.11819 0.24437
 H1553 H 0.88214 0.07919 0.29201
 H1554 H 0.85117 0.11828 0.29165
 C1555 C 0.39682 0.59040 0.75070
 C1556 C 0.41073 0.61688 0.74598
 C1557 C 0.39395 0.63794 0.74573
 C1558 C 0.36494 0.63040 0.75023
 C1559 C 0.36478 0.61506 0.77634
 C1560 C 0.38153 0.59405 0.77659
 C1561 C 0.37555 0.58875 0.72920
 C1562 C 0.35880 0.60976 0.72895
 C1563 C 0.41450 0.56747 0.75099
 C1564 C 0.42824 0.54805 0.75122
 C1565 C 0.34652 0.65275 0.75000
 C1566 C 0.33066 0.67049 0.74989
 H1567 H 0.43187 0.61891 0.74310
 H1568 H 0.40071 0.65801 0.74262
 H1569 H 0.35261 0.62028 0.79319
 H1570 H 0.38370 0.58128 0.79365
 H1571 H 0.37381 0.57251 0.71535
 H1572 H 0.34274 0.61151 0.71488
 C1573 C 0.91039 0.89707 0.75066
 C1574 C 0.88383 0.91065 0.75602
 C1575 C 0.86292 0.89368 0.75636
 C1576 C 0.87067 0.86484 0.75129
 C1577 C 0.89174 0.85859 0.77214
 C1578 C 0.91259 0.87552 0.77181
 C1579 C 0.90646 0.88215 0.72460
 C1580 C 0.88559 0.86522 0.72494
 C1581 C 0.93316 0.91493 0.75026
 C1582 C 0.95248 0.92879 0.74992
 C1583 C 0.84849 0.84625 0.75159
 C1584 C 0.83087 0.83026 0.75171
 H1585 H 0.88164 0.93169 0.75927
 H1586 H 0.84281 0.90019 0.75990
 H1587 H 0.89037 0.84231 0.78599
 H1588 H 0.92909 0.87373 0.78537
 H1589 H 0.91894 0.88470 0.70738
 H1590 H 0.88022 0.85327 0.70800
 C1591 C 0.40887 0.39667 0.25049
 C1592 C 0.38240 0.41030 0.25619
 C1593 C 0.36144 0.39340 0.25656
 C1594 C 0.36907 0.36458 0.25120
 C1595 C 0.39028 0.35809 0.27183
 C1596 C 0.41118 0.37495 0.27146
 C1597 C 0.40468 0.38197 0.22436
 C1598 C 0.38377 0.36511 0.22473
 C1599 C 0.43169 0.41443 0.25005
 C1600 C 0.45109 0.42818 0.24964
 C1601 C 0.34686 0.34605 0.25153
 C1602 C 0.32924 0.33009 0.25166
 H1603 H 0.38032 0.43132 0.25961
 H1604 H 0.34139 0.39994 0.26031
 H1605 H 0.38896 0.34171 0.28557
 H1606 H 0.42778 0.37301 0.28487
 H1607 H 0.41704 0.38462 0.20705
 H1608 H 0.37822 0.35331 0.20774
   
