data_POSCAR
  _audit_creation_date              2014-09-24
  _audit_creation_method            'ToBaCCo'
  _symmetry_space_group_name_H-M    'P1'
  _symmetry_Int_Tables_number       1
  _symmetry_cell_setting            triclinic
  loop_
  _symmetry_equiv_pos_as_xyz
 x,y,z
_cell_length_a 65.8764
_cell_length_b 65.8049
_cell_length_c 65.5921
_cell_angle_alpha 89.918800
_cell_angle_beta 89.997200
_cell_angle_gamma 90.462700
loop_
  _atom_site_label
  _atom_site_type_symbol
  _atom_site_fract_x
  _atom_site_fract_y
  _atom_site_fract_z
C1 C 0.11804 -0.00192 0.23065
 C2 C 0.12861 0.01874 0.23189
 C3 C 0.14004 0.02163 0.24887
 C4 C 0.14010 0.00321 0.26337
 C5 C 0.13501 -0.01745 0.23308
 C6 C 0.14661 -0.01488 0.25003
 C7 C 0.10603 -0.00376 0.25069
 C8 C 0.11738 -0.00073 0.26790
 H9 H 0.12700 0.03024 0.22017
 H10 H 0.14978 0.00560 0.27699
 H11 H 0.13669 -0.03038 0.22303
 H12 H 0.09027 -0.00834 0.25134
 C13 C 0.38476 0.00338 0.73484
 C14 C 0.37071 -0.01516 0.73503
 C15 C 0.35825 -0.01634 0.75148
 C16 C 0.36107 0.00142 0.76657
 C17 C 0.37062 0.02161 0.73698
 C18 C 0.35809 0.02066 0.75345
 C19 C 0.39559 0.00271 0.75417
 C20 C 0.38273 0.00149 0.77192
 H21 H 0.37119 -0.02681 0.72338
 H22 H 0.35013 0.00032 0.77930
 H23 H 0.37136 0.03473 0.72700
 H24 H 0.41142 0.00688 0.75525
 C25 C 0.88411 0.49852 0.23189
 C26 C 0.86738 0.48238 0.23261
 C27 C 0.85513 0.48335 0.24918
 C28 C 0.86066 0.50070 0.26394
 C29 C 0.87309 0.51877 0.23407
 C30 C 0.86089 0.52008 0.25075
 C31 C 0.89542 0.49614 0.25229
 C32 C 0.88325 0.49755 0.26911
 H33 H 0.86615 0.47034 0.22140
 H34 H 0.85050 0.50171 0.27739
 H35 H 0.87534 0.53128 0.22354
 H36 H 0.91164 0.49459 0.25362
 C37 C 0.61695 0.49417 0.72877
 C38 C 0.63083 0.51280 0.72823
 C39 C 0.64281 0.51517 0.74491
 C40 C 0.64039 0.49799 0.76069
 C41 C 0.63109 0.47615 0.73224
 C42 C 0.64335 0.47804 0.74884
 C43 C 0.60535 0.49588 0.74902
 C44 C 0.61752 0.49801 0.76574
 H45 H 0.63008 0.52405 0.71617
 H46 H 0.65048 0.49971 0.77415
 H47 H 0.63019 0.46222 0.72351
 H48 H 0.58902 0.49428 0.75016
 C49 C 0.23200 0.11269 1.00157
 C50 C 0.23128 0.12642 1.02025
 C51 C 0.24758 0.13897 1.02246
 C52 C 0.26326 0.13711 1.00520
 C53 C 0.23506 0.12708 0.98347
 C54 C 0.25130 0.13984 0.98526
 C55 C 0.25245 0.10165 1.00326
 C56 C 0.26883 0.11439 1.00519
 H57 H 0.21920 0.12544 1.03143
 H58 H 0.27643 0.14760 1.00683
 H59 H 0.22592 0.12626 0.96975
 H60 H 0.25419 0.08548 1.00116
 C61 C 0.72980 0.38715 0.99585
 C62 C 0.72935 0.37297 0.97903
 C63 C 0.74617 0.35939 0.97805
 C64 C 0.76025 0.36224 0.99534
 C65 C 0.73136 0.37467 1.01404
 C66 C 0.74817 0.36094 1.01425
 C67 C 0.74957 0.39737 0.99445
 C68 C 0.76663 0.38374 0.99420
 H69 H 0.71660 0.37227 0.96861
 H70 H 0.77308 0.35168 0.99479
 H71 H 0.72048 0.37574 1.02633
 H72 H 0.75168 0.41329 0.99790
 C73 C 0.23239 0.88783 0.50115
 C74 C 0.23290 0.87106 0.48513
 C75 C 0.24970 0.85931 0.48562
 C76 C 0.26482 0.86530 0.50248
 C77 C 0.23555 0.87693 0.52152
 C78 C 0.25244 0.86520 0.52238
 C79 C 0.25238 0.89979 0.49795
 C80 C 0.26939 0.88802 0.49879
 H81 H 0.22149 0.86968 0.47329
 H82 H 0.27846 0.85551 0.50289
 H83 H 0.22551 0.87896 0.53443
 H84 H 0.25339 0.91617 0.49752
 C85 C 0.73184 0.61470 0.49969
 C86 C 0.73293 0.63049 0.51667
 C87 C 0.74997 0.64218 0.51659
 C88 C 0.76480 0.63706 0.49927
 C89 C 0.73500 0.62676 0.47997
 C90 C 0.75210 0.63848 0.47966
 C91 C 0.75157 0.60249 0.50196
 C92 C 0.76888 0.61411 0.50152
 H93 H 0.72151 0.63156 0.52852
 H94 H 0.77860 0.64683 0.49896
 H95 H 0.72461 0.62582 0.46719
 H96 H 0.75207 0.58617 0.50309
 C97 C 0.00145 0.22640 0.11523
 C98 C 0.01985 0.22704 0.12934
 C99 C 0.02106 0.24373 0.14141
 C100 C 0.00352 0.25870 0.13827
 C101 C -0.01685 0.22906 0.12930
 C102 C -0.01583 0.24573 0.14150
 C103 C 0.00248 0.24651 0.10327
 C104 C 0.00383 0.26350 0.11519
 H105 H 0.03146 0.21546 0.12912
 H106 H 0.00453 0.27209 0.14847
 H107 H -0.02988 0.21892 0.12910
 H108 H 0.00051 0.24742 0.08696
 C109 C -0.00253 0.72970 0.38422
 C110 C -0.01976 0.72976 0.37061
 C111 C -0.02101 0.74705 0.35748
 C112 C -0.00421 0.76145 0.36054
 C113 C 0.01607 0.73236 0.37048
 C114 C 0.01529 0.74881 0.35800
 C115 C -0.00359 0.75001 0.39582
 C116 C -0.00465 0.76682 0.38352
 H117 H -0.03189 0.71865 0.37211
 H118 H -0.00439 0.77456 0.34999
 H119 H 0.02928 0.72269 0.37141
 H120 H -0.00148 0.75116 0.41210
 C121 C 0.50063 0.23260 0.88530
 C122 C 0.48255 0.23340 0.87077
 C123 C 0.48230 0.24987 0.85830
 C124 C 0.50039 0.26443 0.86147
 C125 C 0.51931 0.23453 0.87160
 C126 C 0.51927 0.25097 0.85906
 C127 C 0.50008 0.25299 0.89677
 C128 C 0.49975 0.26975 0.88439
 H129 H 0.47036 0.22225 0.87112
 H130 H 0.50015 0.27757 0.85088
 H131 H 0.53195 0.22412 0.87239
 H132 H 0.50147 0.25426 0.91310
 C133 C 0.49702 0.73322 0.61627
 C134 C 0.51579 0.73302 0.62990
 C135 C 0.51780 0.74941 0.64229
 C136 C 0.50062 0.76492 0.63997
 C137 C 0.47919 0.73608 0.63090
 C138 C 0.48101 0.75243 0.64344
 C139 C 0.49835 0.75357 0.60474
 C140 C 0.50048 0.77025 0.61701
 H141 H 0.52707 0.72115 0.62910
 H142 H 0.50230 0.77805 0.65044
 H143 H 0.46589 0.72628 0.63087
 H144 H 0.49616 0.75490 0.58848
 C145 C 0.88402 1.00599 0.76833
 C146 C 0.86874 1.02160 0.76662
 C147 C 0.85557 1.01974 0.74930
 C148 C 0.86062 1.00218 0.73649
 C149 C 0.87239 0.98588 0.76750
 C150 C 0.86028 0.98364 0.75090
 C151 C 0.89549 1.00712 0.74795
 C152 C 0.88339 1.00478 0.73118
 H153 H 0.86959 1.03525 0.77577
 H154 H 0.85073 0.99973 0.72305
 H155 H 0.87415 0.97409 0.77890
 H156 H 0.91162 1.01010 0.74678
 C157 C 0.38443 0.50810 0.26595
 C158 C 0.37157 0.52708 0.26246
 C159 C 0.35937 0.52617 0.24573
 C160 C 0.36119 0.50619 0.23370
 C161 C 0.36927 0.49048 0.26615
 C162 C 0.35715 0.48931 0.24948
 C163 C 0.39612 0.50574 0.24580
 C164 C 0.38407 0.50493 0.22885
 H165 H 0.37246 0.54034 0.27220
 H166 H 0.35110 0.50549 0.22017
 H167 H 0.36890 0.47920 0.27820
 H168 H 0.41247 0.50603 0.24477
 C169 C 0.61517 0.99777 0.27060
 C170 C 0.62832 0.97896 0.26758
 C171 C 0.64078 0.97998 0.25110
 C172 C 0.63876 0.99990 0.23878
 C173 C 0.62922 1.01473 0.27089
 C174 C 0.64226 1.01626 0.25353
 C175 C 0.60365 0.99962 0.25026
 C176 C 0.61590 1.00095 0.23343
 H177 H 0.62705 0.96547 0.27701
 H178 H 0.64923 1.00027 0.22560
 H179 H 0.62807 1.02658 0.28227
 H180 H 0.58736 0.99797 0.24912
 C181 C 0.11496 0.50133 0.76789
 C182 C 0.12510 0.48069 0.76502
 C183 C 0.13733 0.47949 0.74838
 C184 C 0.13842 0.49927 0.73590
 C185 C 0.13236 0.51678 0.76778
 C186 C 0.14460 0.51590 0.75117
 C187 C 0.10382 0.50487 0.74755
 C188 C 0.11607 0.50367 0.73078
 H189 H 0.12224 0.46788 0.77505
 H190 H 0.14859 0.49848 0.72243
 H191 H 0.13378 0.52860 0.77920
 H192 H 0.08752 0.50570 0.74609
 C193 C 0.76672 0.88515 0.00346
 C194 C 0.76301 0.87088 0.02155
 C195 C 0.74651 0.85851 0.01949
 C196 C 0.73471 0.86181 -0.00052
 C197 C 0.76726 0.87127 -0.01513
 C198 C 0.75073 0.85902 -0.01731
 C199 C 0.74671 0.89683 0.00149
 C200 C 0.72989 0.88476 -0.00085
 H201 H 0.77243 0.87090 0.03509
 H202 H 0.72141 0.85153 -0.00231
 H203 H 0.77961 0.87161 -0.02606
 H204 H 0.74566 0.91306 0.00357
 C205 C 0.26725 0.38602 0.50886
 C206 C 0.26411 0.37176 0.52707
 C207 C 0.24789 0.35894 0.52526
 C208 C 0.23578 0.36189 0.50536
 C209 C 0.26793 0.37206 0.49033
 C210 C 0.25164 0.35945 0.48836
 C211 C 0.24695 0.39717 0.50710
 C212 C 0.23042 0.38470 0.50494
 H213 H 0.27349 0.37224 0.54062
 H214 H 0.22267 0.35132 0.50375
 H215 H 0.28004 0.37280 0.47915
 H216 H 0.24561 0.41344 0.50880
 C217 C 0.26742 0.61272 0.00201
 C218 C 0.26543 0.62612 -0.01693
 C219 C 0.24903 0.63850 -0.01690
 C220 C 0.23565 0.63625 0.00229
 C221 C 0.26672 0.62743 0.01995
 C222 C 0.25035 0.63980 0.02022
 C223 C 0.24703 0.60114 0.00296
 C224 C 0.23028 0.61334 0.00328
 H225 H 0.27579 0.62524 -0.02973
 H226 H 0.22256 0.64671 0.00253
 H227 H 0.27808 0.62749 0.03191
 H228 H 0.24577 0.58486 0.00160
 C229 C 0.77060 0.11464 0.49422
 C230 C 0.76880 0.12726 0.47616
 C231 C 0.75201 0.14098 0.47637
 C232 C 0.73972 0.13895 0.49511
 C233 C 0.77087 0.12860 0.51126
 C234 C 0.75397 0.14207 0.51216
 C235 C 0.75105 0.10407 0.49540
 C236 C 0.73366 0.11731 0.49613
 H237 H 0.77747 0.12417 0.46249
 H238 H 0.72727 0.14998 0.49568
 H239 H 0.78167 0.12705 0.52362
 H240 H 0.74955 0.08813 0.49180
 C241 C 1.00717 0.76475 0.88367
 C242 C 1.02278 0.76254 0.86655
 C243 C 1.01993 0.74592 0.85456
 C244 C 1.00157 0.73265 0.86091
 C245 C 0.98660 0.76394 0.87307
 C246 C 0.98347 0.74729 0.86127
 C247 C 1.00858 0.74457 0.89533
 C248 C 1.00528 0.72766 0.88365
 H249 H 1.03609 0.77221 0.86514
 H250 H 0.99898 0.71926 0.85097
 H251 H 0.97535 0.77573 0.87487
 H252 H 1.01268 0.74377 0.91128
 C253 C 0.50808 0.27103 0.38464
 C254 C 0.52578 0.26786 0.36987
 C255 C 0.52373 0.25128 0.35762
 C256 C 0.50412 0.23891 0.36158
 C257 C 0.48919 0.27107 0.37121
 C258 C 0.48699 0.25447 0.35913
 C259 C 0.50690 0.25094 0.39653
 C260 C 0.50454 0.23404 0.38465
 H261 H 0.53921 0.27745 0.36969
 H262 H 0.50226 0.22556 0.35142
 H263 H 0.47809 0.28313 0.37175
 H264 H 0.50937 0.25005 0.41280
 C265 C 0.99921 0.26584 0.61431
 C266 C 0.98005 0.26294 0.62717
 C267 C 0.98037 0.24649 0.63970
 C268 C 1.00001 0.23401 0.63814
 C269 C 1.01664 0.26594 0.62963
 C270 C 1.01717 0.24951 0.64214
 C271 C 1.00124 0.24555 0.60289
 C272 C 1.00187 0.22879 0.61525
 H273 H 0.96693 0.27269 0.62585
 H274 H 1.00042 0.22088 0.64872
 H275 H 1.02813 0.27782 0.62994
 H276 H 1.00018 0.24426 0.58654
 C277 C 0.49534 0.76871 0.11519
 C278 C 0.47662 0.76611 0.12875
 C279 C 0.47701 0.74946 0.14101
 C280 C 0.49623 0.73650 0.13848
 C281 C 0.51334 0.76813 0.12982
 C282 C 0.51393 0.75148 0.14203
 C283 C 0.49638 0.74856 0.10340
 C284 C 0.49709 0.73160 0.11546
 H285 H 0.46371 0.77618 0.12805
 H286 H 0.49672 0.72318 0.14882
 H287 H 0.52514 0.77970 0.12985
 H288 H 0.49467 0.74756 0.08707
 O289 O -0.01058 0.98448 0.94134
 O290 O 0.02370 0.99511 0.94061
 O291 O -0.01081 0.93812 0.98797
 O292 O -0.00442 0.93553 1.02108
 O293 O -0.05678 0.98573 0.98793
 O294 O -0.05646 1.02017 0.99787
 O295 O 0.04167 0.99105 1.04279
 O296 O 0.04345 0.95964 1.02747
 O297 O 0.04595 1.03479 0.99640
 O298 O 0.03091 1.03949 0.96496
 O299 O -0.00052 1.03920 1.03947
 O300 O -0.03281 1.02225 1.04521
 O301 O 0.01403 1.00672 1.05608
 O302 O -0.02268 0.99643 1.05726
 O303 O 0.01455 1.05233 1.01119
 O304 O 0.00310 1.05297 0.97466
 O305 O 0.05823 1.00651 1.01180
 O306 O 0.05773 0.97241 0.99628
 O307 O -0.03805 1.00052 0.95454
 O308 O -0.04174 1.03221 0.97255
 O309 O -0.04462 0.95709 1.00275
 O310 O -0.02635 0.95336 1.03563
 O311 O 0.00308 0.95122 0.95902
 O312 O 0.03720 0.96760 0.95896
 Zr313 Zr 0.00922 0.98173 0.96634
 O314 O 0.02883 1.00002 0.98391
 Zr315 Zr -0.01360 0.96317 1.00763
 O316 O 0.00571 0.98005 1.02686
 Zr317 Zr -0.03120 1.00483 0.98556
 O318 O -0.01323 1.02363 1.00428
 Zr319 Zr 0.03347 0.98618 1.01232
 O320 O 0.01518 0.96681 0.99413
 Zr321 Zr 0.01532 1.02788 0.99066
 O322 O -0.00342 1.01073 0.97081
 Zr323 Zr -0.00693 1.00878 1.03192
 O324 O -0.02739 0.99110 1.01428
 O325 O -0.01910 0.97643 0.97951
 O326 O 0.02131 1.01460 1.01884
 C327 C -0.02812 0.99273 0.93963
 C328 C -0.00393 0.93636 0.96971
 C329 C -0.05912 0.96782 0.99543
 C330 C 0.03194 0.99922 1.05761
 C331 C 0.06033 1.02458 1.00465
 C332 C 0.00762 1.05391 1.02941
 H333 H 0.04176 1.00204 0.97645
 H334 H -0.02035 1.03661 1.00643
 H335 H -0.02805 0.96795 0.97081
 H336 H 0.00783 0.97242 1.03967
 H337 H 0.04022 0.94805 1.01837
 H338 H 0.00863 0.93832 1.02798
 H339 H -0.00870 1.05798 0.98245
 H340 H -0.03132 1.03670 0.96261
 H341 H 0.06991 0.97271 1.00516
 H342 H 0.03546 0.95915 0.94657
 H343 H -0.03785 1.03263 1.03559
 H344 H -0.05812 1.01512 1.01200
 H345 H 0.02291 0.98555 0.92895
 H346 H 0.02682 1.03085 0.95332
 H347 H -0.03709 0.96317 1.03921
 H348 H -0.01551 0.98402 1.06163
 O349 O 0.48682 0.49128 0.44123
 O350 O 0.52083 0.50281 0.44053
 O351 O 0.48745 0.44497 0.48769
 O352 O 0.49399 0.44246 0.52080
 O353 O 0.44050 0.49159 0.48783
 O354 O 0.44013 0.52605 0.49765
 O355 O 0.53873 0.49866 0.54273
 O356 O 0.54122 0.46744 0.52724
 O357 O 0.54229 0.54278 0.49656
 O358 O 0.52726 0.54721 0.46506
 O359 O 0.49558 0.54618 0.53945
 O360 O 0.46374 0.52858 0.54519
 O361 O 0.51081 0.51375 0.55610
 O362 O 0.47422 0.50289 0.55708
 O363 O 0.51036 0.55967 0.51119
 O364 O 0.49911 0.56008 0.47465
 O365 O 0.55499 0.51470 0.51199
 O366 O 0.55532 0.48073 0.49619
 O367 O 0.45898 0.50675 0.45434
 O368 O 0.45468 0.53840 0.47239
 O369 O 0.45332 0.46319 0.50251
 O370 O 0.47154 0.45972 0.53535
 O371 O 0.50122 0.45839 0.45882
 O372 O 0.53497 0.47555 0.45883
 Zr373 Zr 0.50667 0.48902 0.46622
 O374 O 0.52587 0.50768 0.48386
 Zr375 Zr 0.48417 0.46991 0.50743
 O376 O 0.50307 0.48714 0.52674
 Zr377 Zr 0.46572 0.51122 0.48540
 O378 O 0.48329 0.53035 0.50421
 Zr379 Zr 0.53070 0.49385 0.51224
 O380 O 0.51288 0.47415 0.49397
 Zr381 Zr 0.51179 0.53524 0.49067
 O382 O 0.49343 0.51774 0.47074
 Zr383 Zr 0.48986 0.51562 0.53186
 O384 O 0.46980 0.49755 0.51412
 O385 O 0.47843 0.48311 0.47933
 O386 O 0.51800 0.52203 0.51884
 C387 C 0.46909 0.49912 0.43947
 C388 C 0.49443 0.44338 0.46944
 C389 C 0.43856 0.47362 0.49529
 C390 C 0.52883 0.50648 0.55761
 C391 C 0.55681 0.53282 0.50491
 C392 C 0.50335 0.56111 0.52940
 H393 H 0.53877 0.50999 0.47645
 H394 H 0.47589 0.54316 0.50637
 H395 H 0.46966 0.47445 0.47062
 H396 H 0.50530 0.47951 0.53952
 H397 H 0.53827 0.45585 0.51807
 H398 H 0.50688 0.44557 0.52789
 H399 H 0.48710 0.56474 0.48233
 H400 H 0.46500 0.54306 0.46242
 H401 H 0.56747 0.48124 0.50512
 H402 H 0.53343 0.46711 0.44640
 H403 H 0.45840 0.53874 0.53549
 H404 H 0.43858 0.52100 0.51180
 H405 H 0.52029 0.49325 0.42884
 H406 H 0.52340 0.53850 0.45339
 H407 H 0.46066 0.46935 0.53898
 H408 H 0.48161 0.49060 0.56144
 O409 O 0.50780 -0.03903 0.54520
 O410 O 0.53823 -0.02119 0.54760
 O411 O 0.46229 0.00710 0.54781
 O412 O 0.45359 0.03479 0.53069
 O413 O 0.45933 -0.03918 0.50067
 O414 O 0.47717 -0.04430 0.46979
 O415 O 0.51153 0.06090 0.48955
 O416 O 0.49904 0.06285 0.52231
 O417 O 0.55791 0.01809 0.48970
 O418 O 0.56124 -0.01691 0.50125
 O419 O 0.51196 0.01412 0.44531
 O420 O 0.47722 0.00241 0.44467
 O421 O 0.49683 0.04595 0.46196
 O422 O 0.46415 0.02600 0.45851
 O423 O 0.54096 0.00113 0.45846
 O424 O 0.54746 -0.03081 0.47793
 O425 O 0.54362 0.04611 0.50366
 O426 O 0.52772 0.04674 0.53799
 O427 O 0.49353 -0.05405 0.51739
 O428 O 0.50395 -0.05553 0.48205
 O429 O 0.44493 -0.01138 0.51496
 O430 O 0.44352 0.02396 0.50194
 O431 O 0.49098 -0.00648 0.56115
 O432 O 0.52542 0.00854 0.55978
 Zr433 Zr 0.51103 -0.00844 0.53629
 O434 O 0.52941 0.01018 0.51764
 Zr435 Zr 0.46861 0.01030 0.51656
 O436 O 0.48528 0.03021 0.49765
 Zr437 Zr 0.48976 -0.03041 0.49599
 O438 O 0.50687 -0.01237 0.47563
 Zr439 Zr 0.51372 0.03688 0.51053
 O440 O 0.49591 0.01918 0.53089
 Zr441 Zr 0.53443 -0.00386 0.48944
 O442 O 0.51816 -0.02371 0.50904
 Zr443 Zr 0.49204 0.01531 0.47025
 O444 O 0.47354 -0.00403 0.48838
 O445 O 0.48317 -0.01664 0.52361
 O446 O 0.52012 0.02339 0.48252
 C447 C 0.50093 -0.05466 0.53556
 C448 C 0.47286 0.00037 0.56282
 C449 C 0.44401 -0.02958 0.50788
 C450 C 0.50443 0.06143 0.47129
 C451 C 0.55873 0.03663 0.49588
 C452 C 0.53032 0.00798 0.44359
 H453 H 0.54225 0.01328 0.52484
 H454 H 0.50899 -0.02009 0.46291
 H455 H 0.47491 -0.02544 0.53270
 H456 H 0.47746 0.04277 0.49541
 H457 H 0.49282 0.05869 0.53543
 H458 H 0.46145 0.04720 0.52732
 H459 H 0.53886 -0.03568 0.46655
 H460 H 0.51763 -0.05657 0.48819
 H461 H 0.53342 0.06054 0.53566
 H462 H 0.52417 0.00092 0.57280
 H463 H 0.48343 -0.01098 0.44209
 H464 H 0.46766 -0.03434 0.46383
 H465 H 0.54376 -0.02986 0.53664
 H466 H 0.56425 -0.01023 0.51442
 H467 H 0.44070 0.01594 0.48948
 H468 H 0.46039 0.03831 0.46624
 O469 O 0.00584 0.45296 1.04114
 O470 O 0.03593 0.47118 1.04405
 O471 O -0.04043 0.49826 1.04407
 O472 O -0.04968 0.52590 1.02721
 O473 O -0.04229 0.45247 0.99639
 O474 O -0.02426 0.44823 0.96545
 O475 O 0.00876 0.55355 0.98698
 O476 O -0.00445 0.55498 1.01953
 O477 O 0.05552 0.51148 0.98723
 O478 O 0.05914 0.47626 0.99782
 O479 O 0.00982 0.50778 0.94215
 O480 O -0.02459 0.49550 0.94093
 O481 O -0.00571 0.53891 0.95910
 O482 O -0.03835 0.51849 0.95536
 O483 O 0.03904 0.49530 0.95530
 O484 O 0.04576 0.46281 0.97399
 O485 O 0.04067 0.53902 1.00156
 O486 O 0.02418 0.53900 1.03554
 O487 O -0.00785 0.43799 1.01300
 O488 O 0.00275 0.43730 0.97762
 O489 O -0.05720 0.47985 1.01096
 O490 O -0.05909 0.51544 0.99820
 O491 O -0.01164 0.48488 1.05741
 O492 O 0.02254 0.50052 1.05653
 Zr493 Zr 0.00862 0.48365 1.03268
 O494 O 0.02685 0.50279 1.01448
 Zr495 Zr -0.03395 0.50196 1.01292
 O496 O -0.01746 0.52247 0.99450
 Zr497 Zr -0.01199 0.46189 0.99191
 O498 O 0.00495 0.48057 0.97196
 Zr499 Zr 0.01078 0.52934 1.00772
 O500 O -0.00694 0.51108 1.02762
 Zr501 Zr 0.03229 0.48929 0.98608
 O502 O 0.01620 0.46890 1.00528
 Zr503 Zr -0.01027 0.50810 0.96693
 O504 O -0.02859 0.48813 0.98458
 O505 O -0.01899 0.47517 1.01968
 O506 O 0.01759 0.51640 0.97956
 C507 C -0.00061 0.43732 1.03124
 C508 C -0.02988 0.49145 1.05905
 C509 C -0.05779 0.46171 1.00371
 C510 C 0.00185 0.55427 0.96865
 C511 C 0.05604 0.52985 0.99391
 C512 C 0.02839 0.50230 0.94051
 H513 H 0.03957 0.50592 1.02187
 H514 H 0.00730 0.47315 0.95909
 H515 H -0.02714 0.46610 1.02860
 H516 H -0.02543 0.53496 0.99239
 H517 H -0.01077 0.55060 1.03253
 H518 H -0.04184 0.53846 1.02442
 H519 H 0.03745 0.45824 0.96228
 H520 H 0.01644 0.43646 0.98377
 H521 H 0.02966 0.55294 1.03352
 H522 H 0.02132 0.49270 1.06943
 H523 H -0.01841 0.48209 0.93840
 H524 H -0.03394 0.45810 0.95964
 H525 H 0.04167 0.46272 1.03303
 H526 H 0.06196 0.48268 1.01116
 H527 H -0.06182 0.50739 0.98574
 H528 H -0.04206 0.53093 0.96290
 O529 O 0.05683 0.48515 0.50773
 O530 O 0.05788 0.51927 0.49555
 O531 O 0.01424 0.48691 0.55675
 O532 O -0.01823 0.49445 0.56172
 O533 O 0.00926 0.44034 0.50963
 O534 O -0.00308 0.44038 0.47577
 O535 O -0.04266 0.54018 0.50687
 O536 O -0.02531 0.54180 0.53749
 O537 O 0.00015 0.54257 0.46009
 O538 O 0.03042 0.52680 0.45301
 O539 O -0.04435 0.49667 0.45927
 O540 O -0.04970 0.46493 0.47715
 O541 O -0.05779 0.51257 0.49240
 O542 O -0.05933 0.47589 0.50383
 O543 O -0.01689 0.51114 0.44399
 O544 O 0.01913 0.49881 0.44078
 O545 O -0.01253 0.55562 0.48945
 O546 O 0.00535 0.55517 0.52249
 O547 O 0.04184 0.45772 0.49277
 O548 O 0.02186 0.45455 0.46187
 O549 O -0.00294 0.45327 0.53924
 O550 O -0.03478 0.47230 0.54519
 O551 O 0.04229 0.50037 0.54148
 O552 O 0.04246 0.53400 0.52440
 Zr553 Zr 0.03295 0.50594 0.51135
 O554 O 0.01468 0.52565 0.49413
 Zr555 Zr -0.00737 0.48435 0.53320
 O556 O -0.02720 0.50381 0.51749
 Zr557 Zr 0.01101 0.46557 0.49008
 O558 O -0.00853 0.48364 0.47245
 Zr559 Zr -0.01236 0.53114 0.51000
 O560 O 0.00664 0.51278 0.52824
 Zr561 Zr 0.00549 0.51185 0.46687
 O562 O 0.02601 0.49296 0.48278
 Zr563 Zr -0.03469 0.49079 0.48924
 O564 O -0.01640 0.47023 0.50586
 O565 O 0.01936 0.47804 0.51792
 O566 O -0.02129 0.51866 0.48217
 C567 C 0.05742 0.46723 0.49994
 C568 C 0.03268 0.49353 0.55715
 C569 C 0.00321 0.43845 0.52815
 C570 C -0.05821 0.53077 0.49957
 C571 C -0.00681 0.55730 0.47081
 C572 C -0.03530 0.50451 0.44376
 H573 H 0.02231 0.53839 0.49142
 H574 H -0.01186 0.47634 0.45971
 H575 H 0.02827 0.46904 0.52598
 H576 H -0.03932 0.50638 0.52596
 H577 H -0.01556 0.53858 0.54849
 H578 H -0.02544 0.50731 0.55916
 H579 H 0.01066 0.48711 0.43647
 H580 H 0.03196 0.46460 0.45686
 H581 H -0.00311 0.56757 0.52275
 H582 H 0.05549 0.53209 0.53170
 H583 H -0.04104 0.45942 0.46619
 H584 H -0.01674 0.43901 0.48194
 H585 H 0.07024 0.51825 0.50413
 H586 H 0.04254 0.52284 0.46093
 H587 H -0.03944 0.46159 0.53566
 H588 H -0.06290 0.48380 0.51611
 O589 O 0.50972 0.94330 0.01136
 O590 O 0.49601 0.94306 -0.02104
 O591 O 0.55756 0.98781 0.00809
 O592 O 0.56079 1.02065 -0.00002
 O593 O 0.51507 0.98921 0.05830
 O594 O 0.48112 1.00023 0.06181
 O595 O 0.50176 1.04527 -0.03903
 O596 O 0.53206 1.02929 -0.04461
 O597 O 0.45632 1.00027 -0.03913
 O598 O 0.45091 0.96828 -0.02113
 O599 O 0.45841 1.04330 0.00808
 O600 O 0.47864 1.04741 0.03900
 O601 O 0.48977 1.05864 -0.00947
 O602 O 0.50363 1.05900 0.02599
 O603 O 0.44281 1.01588 -0.00609
 O604 O 0.44116 0.97947 0.00543
 O605 O 0.48372 1.01500 -0.05430
 O606 O 0.51730 0.99832 -0.05726
 O607 O 0.49708 0.95652 0.04074
 O608 O 0.46684 0.97538 0.04835
 O609 O 0.54279 1.00338 0.04318
 O610 O 0.54619 1.03589 0.02463
 O611 O 0.54199 0.96007 -0.00557
 O612 O 0.52183 0.95953 -0.03751
 Zr613 Zr 0.51133 0.96845 -0.00828
 O614 O 0.49193 0.98673 -0.02585
 Zr615 Zr 0.53385 1.00854 0.01280
 O616 O 0.51586 1.02851 -0.00444
 Zr617 Zr 0.49333 0.98775 0.03483
 O618 O 0.47354 1.00723 0.01906
 Zr619 Zr 0.50637 1.01464 -0.03166
 O620 O 0.52678 0.99562 -0.01573
 Zr621 Zr 0.46590 0.99422 -0.00915
 O622 O 0.48405 0.97375 0.00758
 Zr623 Zr 0.48881 1.03433 0.01140
 O624 O 0.50778 1.01593 0.02971
 O625 O 0.52000 0.98093 0.01956
 O626 O 0.47967 1.02189 -0.01632
 C627 C 0.50333 0.94159 0.02980
 C628 C 0.55783 0.96969 0.00078
 C629 C 0.53336 0.99616 0.05878
 C630 C 0.49530 1.06016 -0.02822
 C631 C 0.46532 1.00835 -0.05456
 C632 C 0.44268 1.03408 0.00097
 H633 H 0.48857 0.97958 -0.03868
 H634 H 0.46143 1.00976 0.02754
 H635 H 0.52891 0.97187 0.02756
 H636 H 0.52369 1.04107 -0.00727
 H637 H 0.54368 1.02007 -0.04255
 H638 H 0.55670 1.02890 -0.01190
 H639 H 0.43785 0.98722 0.01789
 H640 H 0.46058 0.96630 0.03806
 H641 H 0.51588 1.00708 -0.06948
 H642 H 0.52897 0.94637 -0.03623
 H643 H 0.46795 1.03841 0.04468
 H644 H 0.48685 1.01414 0.06299
 H645 H 0.48230 0.94262 -0.01487
 H646 H 0.45919 0.96312 -0.03256
 H647 H 0.53752 1.03989 0.03625
 H648 H 0.51549 1.06295 0.01759
 O649 O 0.54538 0.46343 -0.00041
 O650 O 0.52871 0.45709 0.02991
 O651 O 0.49759 0.46039 -0.04540
 O652 O 0.46922 0.47682 -0.05298
 O653 O 0.54178 0.51006 -0.04555
 O654 O 0.54453 0.54063 -0.02623
 O655 O 0.44226 0.51016 0.00843
 O656 O 0.44239 0.47841 -0.00606
 O657 O 0.48610 0.51072 0.05443
 O658 O 0.52192 0.50099 0.05656
 O659 O 0.48613 0.55798 0.01212
 O660 O 0.49636 0.56251 -0.02235
 O661 O 0.45490 0.53991 -0.00413
 O662 O 0.47416 0.54741 -0.03698
 O663 O 0.50090 0.54368 0.03985
 O664 O 0.53407 0.52617 0.04431
 O665 O 0.45866 0.49593 0.03946
 O666 O 0.46017 0.46251 0.02158
 O667 O 0.55820 0.49330 -0.01255
 O668 O 0.55747 0.52779 -0.00011
 O669 O 0.51461 0.49485 -0.06061
 O670 O 0.47853 0.50650 -0.06081
 O671 O 0.51322 0.44615 -0.01807
 O672 O 0.49944 0.44391 0.01697
 Zr673 Zr 0.51437 0.46950 0.00386
 O674 O 0.49517 0.48521 0.02396
 Zr675 Zr 0.49333 0.49084 -0.03691
 O676 O 0.47276 0.50684 -0.01849
 Zr677 Zr 0.53308 0.51274 -0.01482
 O678 O 0.51432 0.53028 0.00413
 Zr679 Zr 0.46774 0.49137 0.00908
 O680 O 0.48614 0.47389 -0.01055
 Zr681 Zr 0.50752 0.51386 0.03079
 O682 O 0.52806 0.49715 0.01273
 Zr683 Zr 0.48596 0.53467 -0.00984
 O684 O 0.50588 0.51954 -0.03010
 O685 O 0.52097 0.48474 -0.02317
 O686 O 0.47952 0.51970 0.01739
 C687 C 0.56016 0.47480 -0.00655
 C688 C 0.50557 0.44522 -0.03608
 C689 C 0.53253 0.50273 -0.06117
 C690 C 0.44028 0.52873 0.00273
 C691 C 0.46790 0.50354 0.05494
 C692 C 0.49275 0.55872 0.03054
 H693 H 0.49284 0.47695 0.03637
 H694 H 0.52126 0.54331 0.00711
 H695 H 0.53007 0.47677 -0.03206
 H696 H 0.45990 0.50865 -0.02602
 H697 H 0.44735 0.46617 -0.01320
 H698 H 0.45707 0.47789 -0.04423
 H699 H 0.53787 0.53859 0.03665
 H700 H 0.55933 0.52094 0.01320
 H701 H 0.44645 0.46343 0.02771
 H702 H 0.50768 0.43161 0.01441
 H703 H 0.51039 0.56473 -0.01743
 H704 H 0.53416 0.54591 -0.03574
 H705 H 0.53625 0.46835 0.03652
 H706 H 0.51565 0.48752 0.05910
 H707 H 0.48622 0.51928 -0.06314
 H708 H 0.46216 0.53925 -0.04106
 O709 O -0.05874 0.00758 0.50947
 O710 O -0.05919 -0.02507 0.49629
 O711 O -0.01409 0.00536 0.55695
 O712 O 0.01853 -0.00340 0.55991
 O713 O -0.01230 0.05448 0.51367
 O714 O -0.00154 0.05754 0.47931
 O715 O 0.04283 -0.04269 0.50092
 O716 O 0.02694 -0.04786 0.53161
 O717 O -0.00270 -0.04347 0.45596
 O718 O -0.03437 -0.02550 0.45064
 O719 O 0.04088 0.00366 0.45673
 O720 O 0.04535 0.03479 0.47652
 O721 O 0.05626 -0.01335 0.48822
 O722 O 0.05699 0.02215 0.50161
 O723 O 0.01333 -0.01073 0.44161
 O724 O -0.02293 0.00079 0.44027
 O725 O 0.01209 -0.05823 0.48345
 O726 O -0.00420 -0.06071 0.51745
 O727 O -0.04530 0.03674 0.49627
 O728 O -0.02656 0.04391 0.46552
 O729 O 0.00196 0.03969 0.54145
 O730 O 0.03412 0.02124 0.54479
 O731 O -0.04204 -0.00848 0.54196
 O732 O -0.04277 -0.04085 0.52249
 Zr733 Zr -0.03373 -0.01193 0.51114
 O734 O -0.01570 -0.02968 0.49168
 Zr735 Zr 0.00665 0.00932 0.53285
 O736 O 0.02636 -0.00806 0.51476
 Zr737 Zr -0.01416 0.03080 0.49215
 O738 O 0.00504 0.01481 0.47223
 Zr739 Zr 0.01224 -0.03533 0.50583
 O740 O -0.00656 -0.01920 0.52636
 Zr741 Zr -0.00824 -0.01342 0.46515
 O742 O -0.02844 0.00350 0.48343
 Zr743 Zr 0.03213 0.00739 0.48730
 O744 O 0.01402 0.02586 0.50634
 O745 O -0.02093 0.01592 0.51922
 O746 O 0.01943 -0.02039 0.47868
 C747 C -0.06031 0.02591 0.50285
 C748 C -0.03235 -0.00170 0.55758
 C749 C -0.00519 0.05513 0.53192
 C750 C 0.05775 -0.03194 0.49407
 C751 C 0.00520 -0.05876 0.46513
 C752 C 0.03158 -0.00368 0.44115
 H753 H -0.02300 -0.04251 0.48861
 H754 H 0.00758 0.02310 0.45990
 H755 H -0.02986 0.02409 0.52811
 H756 H 0.03894 -0.01075 0.52249
 H757 H 0.01782 -0.04565 0.54338
 H758 H 0.02713 -0.01492 0.55579
 H759 H -0.01508 0.01315 0.43665
 H760 H -0.03573 0.03355 0.45950
 H761 H 0.00446 -0.07290 0.51612
 H762 H -0.05590 -0.03944 0.52976
 H763 H 0.03635 0.04030 0.46582
 H764 H 0.01239 0.05881 0.48487
 H765 H -0.05980 -0.01896 0.48251
 H766 H -0.03964 -0.03672 0.45923
 H767 H 0.03831 0.03259 0.53576
 H768 H 0.06099 0.01391 0.51355
 O769 O 0.75106 0.28749 0.19847
 O770 O 0.71708 0.28887 0.21030
 O771 O 0.78580 0.29681 0.25356
 O772 O 0.79136 0.28118 0.28297
 O773 O 0.80011 0.24765 0.21093
 O774 O 0.78564 0.21479 0.20566
 O775 O 0.73170 0.23941 0.30082
 O776 O 0.74157 0.27307 0.30179
 O777 O 0.69373 0.23221 0.24978
 O778 O 0.69504 0.24294 0.21621
 O779 O 0.74147 0.19160 0.25742
 O780 O 0.77733 0.19237 0.25340
 O781 O 0.74955 0.21166 0.29101
 O782 O 0.78562 0.20901 0.27752
 O783 O 0.71505 0.20181 0.23778
 O784 O 0.71394 0.21947 0.20392
 O785 O 0.70227 0.24863 0.27902
 O786 O 0.71488 0.28429 0.27971
 O787 O 0.76873 0.25965 0.18856
 O788 O 0.76073 0.22388 0.18832
 O789 O 0.80848 0.26480 0.23979
 O790 O 0.80428 0.25313 0.27577
 O791 O 0.76021 0.30717 0.23283
 O792 O 0.72395 0.30368 0.24218
 Zr793 Zr 0.74227 0.28083 0.22876
 O794 O 0.72177 0.26209 0.24500
 Zr795 Zr 0.78134 0.26527 0.25683
 O796 O 0.76222 0.24661 0.27468
 Zr797 Zr 0.76910 0.24074 0.21446
 O798 O 0.74998 0.22054 0.23050
 Zr799 Zr 0.73254 0.25790 0.27478
 O800 O 0.75227 0.27813 0.25919
 Zr801 Zr 0.72073 0.23286 0.23251
 O802 O 0.73937 0.25223 0.21453
 Zr803 Zr 0.75955 0.21791 0.26097
 O804 O 0.78047 0.23597 0.24405
 O805 O 0.77165 0.26958 0.22708
 O806 O 0.73003 0.22874 0.26258
 C807 C 0.76086 0.27713 0.18509
 C808 C 0.77605 0.31063 0.24380
 C809 C 0.81295 0.25694 0.22243
 C810 C 0.73924 0.22178 0.30420
 C811 C 0.68955 0.23904 0.26765
 C812 C 0.72491 0.18816 0.24759
 H813 H 0.70812 0.26828 0.24495
 H814 H 0.75001 0.20730 0.22340
 H815 H 0.78080 0.27879 0.21934
 H816 H 0.76771 0.24583 0.28869
 H817 H 0.74748 0.28630 0.29753
 H818 H 0.78088 0.27904 0.29355
 H819 H 0.72340 0.20807 0.20183
 H820 H 0.74735 0.22901 0.18389
 H821 H 0.70705 0.28229 0.29249
 H822 H 0.72616 0.31676 0.23497
 H823 H 0.77503 0.18947 0.23879
 H824 H 0.79393 0.21083 0.21759
 H825 H 0.71942 0.30264 0.20452
 H826 H 0.69948 0.25514 0.20854
 H827 H 0.80931 0.24073 0.26897
 H828 H 0.78663 0.21771 0.28977
 O829 O 0.75596 0.71136 0.70382
 O830 O 0.78744 0.70793 0.72016
 O831 O 0.71363 0.70360 0.75398
 O832 O 0.70573 0.71916 0.78277
 O833 O 0.70651 0.75406 0.71062
 O834 O 0.72356 0.78538 0.70625
 O835 O 0.76421 0.75902 0.80754
 O836 O 0.75304 0.72617 0.80780
 O837 O 0.80877 0.76269 0.76068
 O838 O 0.81038 0.75368 0.72713
 O839 O 0.76194 0.80684 0.76302
 O840 O 0.72649 0.80723 0.75440
 O841 O 0.74847 0.78723 0.79552
 O842 O 0.71532 0.79193 0.77789
 O843 O 0.79014 0.79524 0.74708
 O844 O 0.79424 0.77758 0.71340
 O845 O 0.79628 0.74707 0.78897
 O846 O 0.78112 0.71292 0.78904
 O847 O 0.74033 0.73964 0.69185
 O848 O 0.74948 0.77492 0.69224
 O849 O 0.69422 0.73738 0.73836
 O850 O 0.69487 0.74774 0.77451
 O851 O 0.74097 0.69208 0.73643
 O852 O 0.77564 0.69392 0.75099
 Zr853 Zr 0.76048 0.71750 0.73500
 O854 O 0.77971 0.73541 0.75338
 Zr855 Zr 0.71926 0.73487 0.75809
 O856 O 0.73695 0.75283 0.77791
 Zr857 Zr 0.73741 0.75870 0.71738
 O858 O 0.75544 0.77812 0.73543
 Zr859 Zr 0.76588 0.74030 0.78174
 O860 O 0.74720 0.72080 0.76404
 Zr861 Zr 0.78362 0.76450 0.74099
 O862 O 0.76633 0.74587 0.72111
 Zr863 Zr 0.74249 0.78134 0.76450
 O864 O 0.72294 0.76406 0.74542
 O865 O 0.73201 0.73002 0.72961
 O866 O 0.77121 0.76932 0.76982
 C867 C 0.74847 0.72213 0.68933
 C868 C 0.72381 0.68935 0.74541
 C869 C 0.69194 0.74599 0.72093
 C870 C 0.75646 0.77673 0.80996
 C871 C 0.81085 0.75509 0.77862
 C872 C 0.77968 0.80947 0.75524
 H873 H 0.79288 0.72843 0.75484
 H874 H 0.75686 0.79131 0.72831
 H875 H 0.72336 0.72137 0.72077
 H876 H 0.72981 0.75392 0.79112
 H877 H 0.74690 0.71321 0.80312
 H878 H 0.71476 0.72118 0.79463
 H879 H 0.78580 0.78958 0.71037
 H880 H 0.76323 0.76949 0.68975
 H881 H 0.78738 0.71448 0.80271
 H882 H 0.77371 0.68084 0.74373
 H883 H 0.73163 0.81078 0.74068
 H884 H 0.71466 0.79037 0.71730
 H885 H 0.78524 0.69415 0.71441
 H886 H 0.80651 0.74096 0.72007
 H887 H 0.69148 0.76069 0.76767
 H888 H 0.71179 0.78272 0.78931
 O889 O 0.24711 0.21656 0.80481
 O890 O 0.21389 0.21158 0.79124
 O891 O 0.28632 0.20508 0.75470
 O892 O 0.29153 0.21678 0.72323
 O893 O 0.29465 0.26004 0.79080
 O894 O 0.27708 0.29113 0.79300
 O895 O 0.23062 0.25350 0.69766
 O896 O 0.24333 0.22097 0.69984
 O897 O 0.18977 0.26083 0.74592
 O898 O 0.19006 0.25529 0.78048
 O899 O 0.23581 0.30501 0.73561
 O900 O 0.27193 0.30721 0.74293
 O901 O 0.24679 0.28305 0.70580
 O902 O 0.28174 0.28957 0.72022
 O903 O 0.20844 0.29467 0.75404
 O904 O 0.20669 0.28138 0.79029
 O905 O 0.20083 0.24219 0.71904
 O906 O 0.21676 0.20854 0.72186
 O907 O 0.26307 0.24621 0.81305
 O908 O 0.25192 0.28102 0.80958
 O909 O 0.30564 0.24080 0.76434
 O910 O 0.30278 0.24684 0.72732
 O911 O 0.25966 0.19480 0.77429
 O912 O 0.22423 0.19400 0.76165
 Zr913 Zr 0.23987 0.21968 0.77375
 O914 O 0.21943 0.23502 0.75462
 Zr915 Zr 0.27957 0.23530 0.74655
 O916 O 0.26062 0.25060 0.72582
 Zr917 Zr 0.26330 0.26298 0.78557
 O918 O 0.24413 0.27998 0.76643
 Zr919 Zr 0.23168 0.23707 0.72515
 O920 O 0.25154 0.22001 0.74381
 Zr921 Zr 0.21586 0.26519 0.76400
 O922 O 0.23438 0.24916 0.78489
 Zr923 Zr 0.25555 0.28016 0.73652
 O924 O 0.27623 0.26555 0.75630
 O925 O 0.26837 0.23340 0.77601
 O926 O 0.22681 0.26697 0.73428
 C927 C 0.25595 0.22849 0.81761
 C928 C 0.27677 0.19169 0.76547
 C929 C 0.30872 0.25119 0.78064
 C930 C 0.23734 0.27137 0.69321
 C931 C 0.18683 0.25132 0.72903
 C932 C 0.21816 0.30791 0.74330
 H933 H 0.20629 0.22762 0.75471
 H934 H 0.24287 0.29387 0.77196
 H935 H 0.27776 0.22604 0.78514
 H936 H 0.26684 0.25054 0.71210
 H937 H 0.24995 0.20869 0.70537
 H938 H 0.28240 0.21819 0.71137
 H939 H 0.21496 0.29397 0.79113
 H940 H 0.23861 0.27509 0.81346
 H941 H 0.20963 0.20846 0.70854
 H942 H 0.22658 0.18203 0.77051
 H943 H 0.26675 0.31267 0.75595
 H944 H 0.28508 0.29532 0.78090
 H945 H 0.21659 0.19872 0.79863
 H946 H 0.19470 0.24411 0.78938
 H947 H 0.30620 0.26065 0.73229
 H948 H 0.28391 0.27984 0.70896
 O949 O 0.21444 0.80237 0.25113
 O950 O 0.20945 0.78932 0.21854
 O951 O 0.20220 0.75228 0.29089
 O952 O 0.21358 0.72111 0.29629
 O953 O 0.25747 0.78838 0.29904
 O954 O 0.28877 0.79033 0.28129
 O955 O 0.25035 0.69540 0.23481
 O956 O 0.21791 0.69749 0.24785
 O957 O 0.25836 0.74309 0.19385
 O958 O 0.25415 0.77983 0.19494
 O959 O 0.30218 0.73319 0.24009
 O960 O 0.30415 0.74050 0.27629
 O961 O 0.27978 0.70357 0.25107
 O962 O 0.28624 0.71784 0.28617
 O963 O 0.29225 0.75147 0.21252
 O964 O 0.27964 0.78707 0.20983
 O965 O 0.23913 0.71654 0.20506
 O966 O 0.20548 0.71983 0.22153
 O967 O 0.24416 0.81044 0.26695
 O968 O 0.27895 0.80702 0.25626
 O969 O 0.23790 0.76207 0.31025
 O970 O 0.24356 0.72512 0.30740
 O971 O 0.19235 0.77139 0.26382
 O972 O 0.19156 0.76095 0.22783
 Zr973 Zr 0.21748 0.77139 0.24410
 O974 O 0.23251 0.75211 0.22355
 Zr975 Zr 0.23237 0.74430 0.28410
 O976 O 0.24750 0.72355 0.26509
 Zr977 Zr 0.26060 0.78304 0.26758
 O978 O 0.27742 0.76392 0.24827
 Zr979 Zr 0.23415 0.72280 0.23606
 O980 O 0.21723 0.74155 0.25593
 Zr981 Zr 0.26282 0.76140 0.21989
 O982 O 0.24711 0.78229 0.23856
 Zr983 Zr 0.27718 0.73414 0.25988
 O984 O 0.26272 0.75390 0.28065
 O985 O 0.23087 0.77369 0.27277
 O986 O 0.26416 0.73183 0.23103
 C987 C 0.22660 0.81510 0.25980
 C988 C 0.18897 0.76272 0.28106
 C989 C 0.24846 0.77832 0.31326
 C990 C 0.26816 0.69102 0.24150
 C991 C 0.24858 0.72633 0.19096
 C992 C 0.30532 0.74085 0.22236
 H993 H 0.22503 0.75202 0.21047
 H994 H 0.29137 0.76941 0.24696
 H995 H 0.22350 0.78283 0.28213
 H996 H 0.24727 0.70988 0.27137
 H997 H 0.20567 0.70294 0.25460
 H998 H 0.21477 0.70932 0.28706
 H999 H 0.29147 0.78874 0.21898
 H1000 H 0.27356 0.81052 0.24262
 H1001 H 0.20514 0.70662 0.21428
 H1002 H 0.18029 0.77065 0.22993
 H1003 H 0.30978 0.75347 0.27107
 H1004 H 0.29265 0.77835 0.28951
 H1005 H 0.22184 0.79677 0.21422
 H1006 H 0.24003 0.77612 0.19130
 H1007 H 0.25740 0.73003 0.31077
 H1008 H 0.27643 0.70659 0.28834
 O1009 O 0.24346 0.69041 0.76092
 O1010 O 0.27771 0.69245 0.75549
 O1011 O 0.23310 0.73693 0.80660
 O1012 O 0.23679 0.77036 0.80945
 O1013 O 0.19373 0.73183 0.75373
 O1014 O 0.19703 0.74255 0.71938
 O1015 O 0.28721 0.79610 0.76056
 O1016 O 0.28698 0.78063 0.79174
 O1017 O 0.30032 0.75096 0.71733
 O1018 O 0.28675 0.71682 0.71009
 O1019 O 0.25196 0.78925 0.70677
 O1020 O 0.21841 0.79259 0.71832
 O1021 O 0.26065 0.80694 0.74136
 O1022 O 0.22229 0.80364 0.74666
 O1023 O 0.27033 0.76235 0.69585
 O1024 O 0.26246 0.72526 0.69394
 O1025 O 0.30813 0.76716 0.74688
 O1026 O 0.30464 0.75079 0.78105
 O1027 O 0.21721 0.70091 0.74105
 O1028 O 0.21531 0.71905 0.70904
 O1029 O 0.20123 0.74792 0.78342
 O1030 O 0.21594 0.78266 0.78859
 O1031 O 0.25121 0.70967 0.79603
 O1032 O 0.28678 0.71086 0.78328
 Zr1033 Zr 0.26028 0.71720 0.76605
 O1034 O 0.28058 0.73638 0.75010
 Zr1035 Zr 0.23211 0.75605 0.78100
 O1036 O 0.25179 0.77687 0.76653
 Zr1037 Zr 0.22142 0.73254 0.73766
 O1038 O 0.23997 0.75288 0.72103
 Zr1039 Zr 0.28118 0.76497 0.76415
 O1040 O 0.26217 0.74528 0.78135
 Zr1041 Zr 0.26982 0.74196 0.72054
 O1042 O 0.25084 0.72062 0.73552
 Zr1043 Zr 0.24233 0.78091 0.73625
 O1044 O 0.22127 0.76146 0.75134
 O1045 O 0.23058 0.72757 0.76753
 O1046 O 0.27198 0.77045 0.73422
 C1047 C 0.22739 0.68701 0.75026
 C1048 C 0.24121 0.71950 0.80963
 C1049 C 0.18878 0.73884 0.77131
 C1050 C 0.27725 0.81007 0.75131
 C1051 C 0.31271 0.76060 0.72902
 C1052 C 0.26254 0.77998 0.69325
 H1053 H 0.29425 0.73027 0.74998
 H1054 H 0.23435 0.75447 0.70716
 H1055 H 0.22156 0.71796 0.77492
 H1056 H 0.25184 0.78972 0.77432
 H1057 H 0.28288 0.77136 0.80294
 H1058 H 0.24965 0.77810 0.80831
 H1059 H 0.25043 0.73160 0.68763
 H1060 H 0.22704 0.71030 0.70584
 H1061 H 0.31624 0.76045 0.78197
 H1062 H 0.28464 0.69800 0.79092
 H1063 H 0.21347 0.78139 0.70954
 H1064 H 0.19339 0.75622 0.72442
 H1065 H 0.27589 0.69192 0.74052
 H1066 H 0.29697 0.71353 0.72061
 H1067 H 0.20564 0.78469 0.77781
 H1068 H 0.22805 0.80945 0.75932
 O1069 O 0.26254 0.31197 0.26610
 O1070 O 0.22941 0.31238 0.25630
 O1071 O 0.26403 0.26360 0.31118
 O1072 O 0.25869 0.23053 0.31257
 O1073 O 0.31026 0.26681 0.26312
 O1074 O 0.31026 0.25852 0.22830
 O1075 O 0.21295 0.20940 0.25685
 O1076 O 0.21035 0.22349 0.28822
 O1077 O 0.20750 0.25727 0.21430
 O1078 O 0.22421 0.28960 0.20904
 O1079 O 0.25547 0.21561 0.20802
 O1080 O 0.28694 0.20982 0.22427
 O1081 O 0.24095 0.19736 0.24077
 O1082 O 0.27807 0.19767 0.25059
 O1083 O 0.23988 0.24372 0.19577
 O1084 O 0.24983 0.28040 0.19621
 O1085 O 0.19549 0.24073 0.24226
 O1086 O 0.19625 0.25506 0.27718
 O1087 O 0.29028 0.30048 0.24913
 O1088 O 0.29503 0.28332 0.21714
 O1089 O 0.29842 0.25053 0.29129
 O1090 O 0.28059 0.21731 0.29405
 O1091 O 0.24886 0.29212 0.29929
 O1092 O 0.21561 0.29383 0.28196
 Zr1093 Zr 0.24371 0.28618 0.26816
 O1094 O 0.22445 0.26879 0.24931
 Zr1095 Zr 0.26743 0.24524 0.28526
 O1096 O 0.24849 0.22613 0.26784
 Zr1097 Zr 0.28461 0.26925 0.24423
 O1098 O 0.26707 0.25058 0.22488
 Zr1099 Zr 0.22041 0.23991 0.26228
 O1100 O 0.23830 0.25786 0.28224
 Zr1101 Zr 0.23820 0.26331 0.22103
 O1102 O 0.25645 0.28301 0.23888
 Zr1103 Zr 0.26124 0.22232 0.23880
 O1104 O 0.28135 0.24000 0.25692
 O1105 O 0.27239 0.27398 0.27303
 O1106 O 0.23267 0.23459 0.23341
 C1107 C 0.27980 0.31474 0.25733
 C1108 C 0.25616 0.28121 0.31376
 C1109 C 0.31282 0.25843 0.28063
 C1110 C 0.22316 0.19502 0.24861
 C1111 C 0.19317 0.24864 0.22451
 C1112 C 0.24747 0.22595 0.19351
 H1113 H 0.21135 0.27588 0.24784
 H1114 H 0.27433 0.24908 0.21179
 H1115 H 0.28108 0.28268 0.28180
 H1116 H 0.24668 0.21309 0.27517
 H1117 H 0.21368 0.23196 0.30025
 H1118 H 0.24544 0.22393 0.30983
 H1119 H 0.26218 0.27353 0.19122
 H1120 H 0.28427 0.29277 0.21275
 H1121 H 0.18399 0.24624 0.27645
 H1122 H 0.21746 0.30637 0.29017
 H1123 H 0.29282 0.22050 0.21539
 H1124 H 0.31223 0.24428 0.23272
 H1125 H 0.23343 0.31345 0.24180
 H1126 H 0.21408 0.29425 0.21910
 H1127 H 0.29161 0.21447 0.28422
 H1128 H 0.27070 0.19225 0.26259
 O1129 O 0.78703 0.70474 0.24824
 O1130 O 0.78841 0.71624 0.21510
 O1131 O 0.79452 0.75949 0.28392
 O1132 O 0.77811 0.78828 0.28944
 O1133 O 0.74696 0.71507 0.29814
 O1134 O 0.71427 0.70850 0.28411
 O1135 O 0.73594 0.80461 0.22991
 O1136 O 0.76933 0.80706 0.23931
 O1137 O 0.73014 0.75377 0.19180
 O1138 O 0.74039 0.71865 0.19367
 O1139 O 0.68940 0.75988 0.24022
 O1140 O 0.69023 0.75557 0.27598
 O1141 O 0.70864 0.79390 0.24836
 O1142 O 0.70651 0.77993 0.28459
 O1143 O 0.70003 0.74083 0.21351
 O1144 O 0.71857 0.70759 0.21195
 O1145 O 0.74575 0.78349 0.20021
 O1146 O 0.78154 0.78524 0.21285
 O1147 O 0.75958 0.69363 0.26628
 O1148 O 0.72367 0.69192 0.25880
 O1149 O 0.76328 0.74437 0.30663
 O1150 O 0.75030 0.77982 0.30271
 O1151 O 0.80542 0.73991 0.25766
 O1152 O 0.80198 0.74753 0.22085
 Zr1153 Zr 0.77923 0.73458 0.23990
 O1154 O 0.76008 0.75006 0.21947
 Zr1155 Zr 0.76303 0.76163 0.27947
 O1156 O 0.74392 0.77879 0.26048
 Zr1157 Zr 0.73976 0.71857 0.26718
 O1158 O 0.71902 0.73387 0.24832
 Zr1159 Zr 0.75512 0.77945 0.23054
 O1160 O 0.77582 0.76471 0.25015
 Zr1161 Zr 0.73118 0.73647 0.21882
 O1162 O 0.75111 0.71931 0.23726
 Zr1163 Zr 0.71563 0.76409 0.25809
 O1164 O 0.73415 0.74776 0.27884
 O1165 O 0.76820 0.73222 0.26951
 O1166 O 0.72631 0.76623 0.22831
 C1167 C 0.77715 0.69096 0.25817
 C1168 C 0.80856 0.75048 0.27386
 C1169 C 0.75606 0.72667 0.31101
 C1170 C 0.71836 0.80738 0.23785
 C1171 C 0.73646 0.77182 0.18753
 C1172 C 0.68619 0.75011 0.22356
 H1173 H 0.76638 0.75050 0.20579
 H1174 H 0.70599 0.72632 0.24847
 H1175 H 0.77768 0.72480 0.27851
 H1176 H 0.74277 0.79269 0.26606
 H1177 H 0.78260 0.80343 0.24533
 H1178 H 0.77575 0.79873 0.27888
 H1179 H 0.70720 0.70507 0.22151
 H1180 H 0.72889 0.68782 0.24528
 H1181 H 0.77920 0.79773 0.20473
 H1182 H 0.81487 0.74010 0.22294
 H1183 H 0.68807 0.74081 0.27405
 H1184 H 0.70991 0.72017 0.29251
 H1185 H 0.77657 0.70767 0.21136
 H1186 H 0.75374 0.72386 0.18904
 H1187 H 0.73831 0.77236 0.30805
 H1188 H 0.71469 0.79258 0.28546
 O1189 O 0.70431 0.24760 0.78663
 O1190 O 0.71537 0.21350 0.78757
 O1191 O 0.75995 0.28166 0.79469
 O1192 O 0.78908 0.28685 0.77820
 O1193 O 0.71664 0.29726 0.74658
 O1194 O 0.71002 0.28343 0.71376
 O1195 O 0.80404 0.22753 0.73539
 O1196 O 0.80637 0.23676 0.76908
 O1197 O 0.75215 0.19045 0.72932
 O1198 O 0.71910 0.19217 0.74091
 O1199 O 0.75991 0.23879 0.68868
 O1200 O 0.75658 0.27500 0.69004
 O1201 O 0.79406 0.24617 0.70800
 O1202 O 0.78156 0.28225 0.70571
 O1203 O 0.73999 0.21249 0.69923
 O1204 O 0.70669 0.21176 0.71799
 O1205 O 0.78194 0.19823 0.74502
 O1206 O 0.78405 0.21029 0.78085
 O1207 O 0.69413 0.26599 0.75914
 O1208 O 0.69253 0.25858 0.72319
 O1209 O 0.74594 0.30506 0.76314
 O1210 O 0.78136 0.30047 0.75038
 O1211 O 0.73906 0.25614 0.80549
 O1212 O 0.74781 0.21974 0.80140
 Zr1213 Zr 0.73403 0.23859 0.77905
 O1214 O 0.74903 0.21810 0.75959
 Zr1215 Zr 0.76234 0.27758 0.76293
 O1216 O 0.77905 0.25842 0.74357
 Zr1217 Zr 0.71925 0.26630 0.73938
 O1218 O 0.73411 0.24728 0.71850
 Zr1219 Zr 0.77877 0.22849 0.75466
 O1220 O 0.76444 0.24821 0.77555
 Zr1221 Zr 0.73573 0.21777 0.73059
 O1222 O 0.71895 0.23638 0.75073
 Zr1223 Zr 0.76457 0.25644 0.71511
 O1224 O 0.74880 0.27735 0.73386
 O1225 O 0.73267 0.26820 0.76798
 O1226 O 0.76576 0.22667 0.72572
 C1227 C 0.69098 0.25782 0.77668
 C1228 C 0.75030 0.27190 0.80875
 C1229 C 0.72852 0.30984 0.75575
 C1230 C 0.80716 0.23543 0.71775
 C1231 C 0.77001 0.18583 0.73565
 C1232 C 0.74965 0.22241 0.68535
 H1233 H 0.74882 0.20434 0.76571
 H1234 H 0.72666 0.24764 0.70542
 H1235 H 0.72543 0.27732 0.77746
 H1236 H 0.79311 0.26369 0.74245
 H1237 H 0.80273 0.24256 0.78250
 H1238 H 0.79925 0.27618 0.77571
 H1239 H 0.70461 0.22131 0.70653
 H1240 H 0.68793 0.24520 0.72843
 H1241 H 0.79648 0.20225 0.77841
 H1242 H 0.74116 0.22188 0.81477
 H1243 H 0.74203 0.27255 0.68719
 H1244 H 0.72200 0.29151 0.70938
 H1245 H 0.71022 0.21567 0.80161
 H1246 H 0.71219 0.19645 0.75357
 H1247 H 0.77438 0.30575 0.73812
 H1248 H 0.79374 0.28324 0.71448
 C1249 C 0.08646 0.99617 1.17271
 C1250 C 0.07536 0.99896 1.19065
 C1251 C 0.08522 0.99907 1.20953
 C1252 C 0.10636 0.99606 1.21073
 C1253 C 0.11730 0.99345 1.19246
 C1254 C 0.10742 0.99334 1.17367
 C1255 C 0.07661 0.99697 1.15322
 C1256 C 0.06875 0.99775 1.13667
 C1257 C 0.05970 0.99863 1.11679
 C1258 C 0.04047 1.00709 1.11423
 C1259 C 0.03155 1.00761 1.09491
 C1260 C 0.04180 0.99964 1.07789
 C1261 C 0.06128 0.99142 1.08063
 C1262 C 0.07014 0.99093 1.09996
 H1263 H 0.05914 1.00150 1.19000
 H1264 H 0.07624 1.00220 1.22291
 H1265 H 0.13366 0.99192 1.19268
 H1266 H 0.11620 0.99143 1.15984
 H1267 H 0.03230 1.01314 1.12718
 H1268 H 0.01655 1.01405 1.09338
 H1269 H 0.06960 0.98518 1.06789
 H1270 H 0.08508 0.98441 1.10180
 C1271 C 0.58282 0.49661 0.67245
 C1272 C 0.60074 0.48544 0.67345
 C1273 C 0.61132 0.48392 0.69181
 C1274 C 0.60393 0.49323 0.70965
 C1275 C 0.58588 0.50456 0.70835
 C1276 C 0.57533 0.50606 0.68993
 C1277 C 0.57287 0.49928 0.65317
 C1278 C 0.56504 0.50146 0.63674
 C1279 C 0.55622 0.50376 0.61687
 C1280 C 0.56720 0.49785 0.59966
 C1281 C 0.55848 0.49923 0.58032
 C1282 C 0.53860 0.50655 0.57793
 C1283 C 0.52785 0.51290 0.59532
 C1284 C 0.53662 0.51148 0.61467
 H1285 H 0.60686 0.47838 0.65988
 H1286 H 0.62569 0.47609 0.69174
 H1287 H 0.58026 0.51291 0.72134
 H1288 H 0.56166 0.51507 0.68921
 H1289 H 0.58241 0.49190 0.60121
 H1290 H 0.56723 0.49425 0.56729
 H1291 H 0.51252 0.51858 0.59405
 H1292 H 0.52802 0.51613 0.62793
 C1293 C 0.41849 0.00300 0.67799
 C1294 C 0.39798 0.00815 0.67837
 C1295 C 0.38747 0.00846 0.69680
 C1296 C 0.39734 0.00396 0.71532
 C1297 C 0.41800 -0.00157 0.71467
 C1298 C 0.42850 -0.00189 0.69613
 C1299 C 0.42891 0.00223 0.65879
 C1300 C 0.43701 0.00169 0.64236
 C1301 C 0.44604 0.00119 0.62245
 C1302 C 0.43507 0.00816 0.60562
 C1303 C 0.44372 0.00779 0.58619
 C1304 C 0.46352 0.00041 0.58335
 C1305 C 0.47438 -0.00667 0.60040
 C1306 C 0.46568 -0.00627 0.61982
 H1307 H 0.39002 0.01168 0.66437
 H1308 H 0.37145 0.01201 0.69656
 H1309 H 0.42606 -0.00620 0.72822
 H1310 H 0.44432 -0.00623 0.69591
 H1311 H 0.41983 0.01394 0.60751
 H1312 H 0.43492 0.01335 0.57344
 H1313 H 0.48964 -0.01246 0.59879
 H1314 H 0.47427 -0.01174 0.63278
 C1315 C -0.08377 0.49448 1.17433
 C1316 C -0.10433 0.49936 1.17497
 C1317 C -0.11431 0.50069 1.19364
 C1318 C -0.10389 0.49728 1.21209
 C1319 C -0.08313 0.49223 1.21122
 C1320 C -0.07317 0.49091 1.19244
 C1321 C -0.07372 0.49314 1.15498
 C1322 C -0.06582 0.49226 1.13848
 C1323 C -0.05690 0.49154 1.11854
 C1324 C -0.06797 0.49832 1.10170
 C1325 C -0.05927 0.49810 1.08229
 C1326 C -0.03934 0.49109 1.07950
 C1327 C -0.02841 0.48411 1.09656
 C1328 C -0.03716 0.48436 1.11595
 H1329 H -0.11269 0.50208 1.16102
 H1330 H -0.13032 0.50432 1.19372
 H1331 H -0.07441 0.48903 1.22472
 H1332 H -0.05723 0.48701 1.19204
 H1333 H -0.08329 0.50390 1.10358
 H1334 H -0.06813 0.50356 1.06953
 H1335 H -0.01304 0.47861 1.09497
 H1336 H -0.02849 0.47907 1.12893
 C1337 C -0.09296 0.50158 0.33009
 C1338 C -0.11211 0.49283 0.32671
 C1339 C -0.11988 0.49147 0.30688
 C1340 C -0.10852 0.49870 0.29018
 C1341 C -0.08937 0.50765 0.29384
 C1342 C -0.08166 0.50901 0.31362
 C1343 C -0.08462 0.50280 0.35033
 C1344 C -0.07696 0.50388 0.36699
 C1345 C -0.06710 0.50509 0.38654
 C1346 C -0.07661 0.49729 0.40398
 C1347 C -0.06647 0.49752 0.42272
 C1348 C -0.04662 0.50552 0.42424
 C1349 C -0.03739 0.51370 0.40666
 C1350 C -0.04756 0.51346 0.38797
 H1351 H -0.12099 0.48701 0.33937
 H1352 H -0.13466 0.48456 0.30468
 H1353 H -0.08042 0.51396 0.28150
 H1354 H -0.06688 0.51592 0.31607
 H1355 H -0.09173 0.49076 0.40303
 H1356 H -0.07406 0.49111 0.43591
 H1357 H -0.02216 0.52000 0.40724
 H1358 H -0.04005 0.51952 0.37455
 C1359 C 0.40709 1.00429 -0.16796
 C1360 C 0.38633 1.00715 -0.17108
 C1361 C 0.37810 1.00584 -0.19071
 C1362 C 0.39057 1.00185 -0.20783
 C1363 C 0.41144 0.99841 -0.20413
 C1364 C 0.41954 0.99971 -0.18450
 C1365 C 0.41577 1.00612 -0.14789
 C1366 C 0.42356 1.00757 -0.13131
 C1367 C 0.43342 1.00903 -0.11176
 C1368 C 0.42390 1.00137 -0.09427
 C1369 C 0.43404 1.00165 -0.07553
 C1370 C 0.45393 1.00956 -0.07404
 C1371 C 0.46316 1.01768 -0.09166
 C1372 C 0.45298 1.01739 -0.11036
 H1373 H 0.37650 1.01061 -0.15833
 H1374 H 0.36208 1.00866 -0.19208
 H1375 H 0.42176 0.99426 -0.21620
 H1376 H 0.43562 0.99714 -0.18223
 H1377 H 0.40877 0.99485 -0.09518
 H1378 H 0.42644 0.99528 -0.06232
 H1379 H 0.47842 1.02391 -0.09111
 H1380 H 0.46051 1.02335 -0.12381
 C1381 C 0.59246 0.50157 -0.17393
 C1382 C 0.61087 0.49157 -0.17714
 C1383 C 0.61927 0.49066 -0.19673
 C1384 C 0.60925 0.49967 -0.21333
 C1385 C 0.59092 0.50995 -0.20987
 C1386 C 0.58260 0.51087 -0.19032
 C1387 C 0.58320 0.50185 -0.15405
 C1388 C 0.57486 0.50209 -0.13769
 C1389 C 0.56433 0.50231 -0.11845
 C1390 C 0.57370 0.51041 -0.10109
 C1391 C 0.56334 0.51067 -0.08248
 C1392 C 0.54342 0.50284 -0.08098
 C1393 C 0.53415 0.49478 -0.09857
 C1394 C 0.54454 0.49454 -0.11715
 H1395 H 0.61859 0.48424 -0.16457
 H1396 H 0.63326 0.48245 -0.19896
 H1397 H 0.58302 0.51732 -0.22228
 H1398 H 0.56837 0.51869 -0.18802
 H1399 H 0.58900 0.51650 -0.10194
 H1400 H 0.57097 0.51696 -0.06926
 H1401 H 0.51888 0.48860 -0.09802
 H1402 H 0.53713 0.48827 -0.13051
 C1403 C 0.09075 -0.00169 0.32798
 C1404 C 0.07903 0.00351 0.31103
 C1405 C 0.08772 0.00400 0.29162
 C1406 C 0.10834 -0.00087 0.28875
 C1407 C 0.12009 -0.00566 0.30602
 C1408 C 0.11133 -0.00615 0.32546
 C1409 C 0.08150 -0.00248 0.34786
 C1410 C 0.07332 -0.00309 0.36430
 C1411 C 0.06310 -0.00371 0.38371
 C1412 C 0.07272 0.00381 0.40119
 C1413 C 0.06255 0.00369 0.41991
 C1414 C 0.04255 -0.00394 0.42140
 C1415 C 0.03310 -0.01162 0.40373
 C1416 C 0.04331 -0.01148 0.38504
 H1417 H 0.06312 0.00719 0.31281
 H1418 H 0.07826 0.00844 0.27892
 H1419 H 0.13597 -0.00929 0.30465
 H1420 H 0.12058 -0.01011 0.33850
 H1421 H 0.08803 0.00988 0.40033
 H1422 H 0.07031 0.00969 0.43317
 H1423 H 0.01776 -0.01764 0.40428
 H1424 H 0.03571 -0.01732 0.37160
 C1425 C 0.17560 1.07841 1.00137
 C1426 C 0.19358 1.06866 1.00684
 C1427 C 0.21206 1.07929 1.00637
 C1428 C 0.21277 1.09982 1.00015
 C1429 C 0.19446 1.10937 0.99475
 C1430 C 0.17611 1.09872 0.99521
 C1431 C 0.15640 1.06804 1.00278
 C1432 C 0.13992 1.06009 1.00387
 C1433 C 0.11992 1.05134 1.00485
 C1434 C 0.11692 1.03181 1.01279
 C1435 C 0.09745 1.02323 1.01315
 C1436 C 0.08075 1.03410 1.00553
 C1437 C 0.08393 1.05388 0.99793
 C1438 C 0.10339 1.06241 0.99759
 H1439 H 0.19327 1.05298 1.01191
 H1440 H 0.22546 1.07152 1.01159
 H1441 H 0.19429 1.12531 0.99064
 H1442 H 0.16222 1.10648 0.99117
 H1443 H 0.12965 1.02315 1.01849
 H1444 H 0.09556 1.00797 1.01911
 H1445 H 0.07145 1.06270 0.99197
 H1446 H 0.10558 1.07758 0.99148
 C1447 C 0.67287 0.58499 0.50239
 C1448 C 0.67465 0.60565 0.49783
 C1449 C 0.69377 0.61480 0.49673
 C1450 C 0.71154 0.60346 0.50008
 C1451 C 0.70952 0.58258 0.50464
 C1452 C 0.69030 0.57345 0.50573
 C1453 C 0.65307 0.57583 0.50381
 C1454 C 0.63630 0.56852 0.50485
 C1455 C 0.61620 0.56000 0.50581
 C1456 C 0.59985 0.57068 0.49756
 C1457 C 0.58040 0.56207 0.49769
 C1458 C 0.57708 0.54261 0.50605
 C1459 C 0.59359 0.53220 0.51469
 C1460 C 0.61302 0.54085 0.51453
 H1461 H 0.66124 0.61474 0.49528
 H1462 H 0.69472 0.63092 0.49348
 H1463 H 0.72247 0.57317 0.50776
 H1464 H 0.68902 0.55743 0.50937
 H1465 H 0.60219 0.58554 0.49079
 H1466 H 0.56806 0.57051 0.49092
 H1467 H 0.59160 0.51721 0.52127
 H1468 H 0.62559 0.53249 0.52098
 C1469 C 0.67516 0.42199 -0.00584
 C1470 C 0.67475 0.40145 -0.00066
 C1471 C 0.69267 0.39043 -0.00005
 C1472 C 0.71170 0.39973 -0.00423
 C1473 C 0.71174 0.42051 -0.00996
 C1474 C 0.69362 0.43152 -0.01056
 C1475 C 0.65635 0.43285 -0.00662
 C1476 C 0.64002 0.44092 -0.00698
 C1477 C 0.62005 0.44953 -0.00707
 C1478 C 0.60351 0.43776 -0.00051
 C1479 C 0.58401 0.44591 -0.00043
 C1480 C 0.58078 0.46601 -0.00694
 C1481 C 0.59754 0.47770 -0.01360
 C1482 C 0.61704 0.46949 -0.01366
 H1483 H 0.66049 0.39384 0.00272
 H1484 H 0.69164 0.37437 0.00353
 H1485 H 0.72544 0.42838 -0.01454
 H1486 H 0.69400 0.44739 -0.01497
 H1487 H 0.60570 0.42226 0.00460
 H1488 H 0.57150 0.43648 0.00479
 H1489 H 0.59563 0.49322 -0.01872
 H1490 H 0.62976 0.47871 -0.01879
 C1491 C 0.17396 -0.08234 0.49751
 C1492 C 0.17545 -0.10258 0.50369
 C1493 C 0.19439 -0.11176 0.50501
 C1494 C 0.21231 -0.10087 0.50034
 C1495 C 0.21063 -0.08045 0.49404
 C1496 C 0.19156 -0.07127 0.49272
 C1497 C 0.15426 -0.07323 0.49594
 C1498 C 0.13751 -0.06611 0.49483
 C1499 C 0.11738 -0.05789 0.49381
 C1500 C 0.10080 -0.06932 0.50090
 C1501 C 0.08130 -0.06109 0.50061
 C1502 C 0.07814 -0.04127 0.49324
 C1503 C 0.09490 -0.03007 0.48580
 C1504 C 0.11436 -0.03833 0.48611
 H1505 H 0.16193 -0.11134 0.50733
 H1506 H 0.19507 -0.12759 0.50952
 H1507 H 0.22376 -0.07153 0.48971
 H1508 H 0.19053 -0.05560 0.48776
 H1509 H 0.10299 -0.08450 0.50688
 H1510 H 0.06878 -0.07013 0.50645
 H1511 H 0.09306 -0.01479 0.47997
 H1512 H 0.12709 -0.02938 0.48055
 C1513 C 0.32939 -0.08580 0.50117
 C1514 C 0.31462 -0.07726 0.48851
 C1515 C 0.29517 -0.08591 0.48746
 C1516 C 0.29024 -0.10326 0.49908
 C1517 C 0.30527 -0.11185 0.51158
 C1518 C 0.32469 -0.10317 0.51261
 C1519 C 0.34924 -0.07655 0.50273
 C1520 C 0.36582 -0.06871 0.50414
 C1521 C 0.38555 -0.05922 0.50579
 C1522 C 0.38747 -0.03971 0.51406
 C1523 C 0.40652 -0.03021 0.51511
 C1524 C 0.42397 -0.04010 0.50787
 C1525 C 0.42190 -0.05987 0.49987
 C1526 C 0.40283 -0.06933 0.49884
 H1527 H 0.31808 -0.06383 0.47955
 H1528 H 0.28399 -0.07905 0.47756
 H1529 H 0.30190 -0.12494 0.52104
 H1530 H 0.33596 -0.10987 0.52254
 H1531 H 0.37421 -0.03174 0.51951
 H1532 H 0.40751 -0.01501 0.52136
 H1533 H 0.43496 -0.06796 0.49415
 H1534 H 0.40153 -0.08445 0.49243
 C1535 C -0.17261 0.40600 0.99719
 C1536 C -0.18812 0.41825 0.98966
 C1537 C -0.20800 0.41081 0.98848
 C1538 C -0.21293 0.39082 0.99484
 C1539 C -0.19696 0.37853 1.00214
 C1540 C -0.17705 0.38610 1.00333
 C1541 C -0.15230 0.41415 0.99898
 C1542 C -0.13553 0.42157 1.00044
 C1543 C -0.11580 0.43109 1.00209
 C1544 C -0.11395 0.45033 1.01100
 C1545 C -0.09505 0.46012 1.01185
 C1546 C -0.07764 0.45081 1.00377
 C1547 C -0.07960 0.43129 0.99514
 C1548 C -0.09856 0.42153 0.99430
 H1549 H -0.18485 0.43365 0.98472
 H1550 H -0.21935 0.42075 0.98208
 H1551 H -0.19964 0.36339 1.00794
 H1552 H -0.16518 0.37651 1.00935
 H1553 H -0.12719 0.45790 1.01706
 H1554 H -0.09416 0.47510 1.01862
 H1555 H -0.06657 0.42366 0.98876
 H1556 H -0.09980 0.40665 0.98734
 C1557 C -0.17125 0.58830 0.50058
 C1558 C -0.17427 0.60758 0.50897
 C1559 C -0.19370 0.61601 0.50926
 C1560 C -0.21042 0.60521 0.50129
 C1561 C -0.20711 0.58591 0.49266
 C1562 C -0.18770 0.57754 0.49237
 C1563 C -0.15137 0.57940 0.50039
 C1564 C -0.13493 0.57149 0.50012
 C1565 C -0.11556 0.56152 0.49970
 C1566 C -0.09823 0.57127 0.50738
 C1567 C -0.07953 0.56136 0.50725
 C1568 C -0.07793 0.54150 0.49944
 C1569 C -0.09546 0.53191 0.49163
 C1570 C -0.11411 0.54186 0.49178
 H1571 H -0.16162 0.61606 0.51534
 H1572 H -0.19556 0.63086 0.51595
 H1573 H -0.21940 0.57735 0.48579
 H1574 H -0.18551 0.56267 0.48568
 H1575 H -0.09919 0.58650 0.51355
 H1576 H -0.06637 0.56921 0.51335
 H1577 H -0.09482 0.51667 0.48547
 H1578 H -0.12744 0.53417 0.48580
 C1579 C 0.32969 1.09151 0.00507
 C1580 C 0.32541 1.11005 -0.00443
 C1581 C 0.30565 1.11773 -0.00409
 C1582 C 0.28996 1.10687 0.00569
 C1583 C 0.29450 1.08842 0.01546
 C1584 C 0.31422 1.08080 0.01513
 C1585 C 0.34972 1.08298 0.00399
 C1586 C 0.36622 1.07523 0.00308
 C1587 C 0.38558 1.06530 0.00201
 C1588 C 0.40306 1.07484 0.00962
 C1589 C 0.42170 1.06480 0.00912
 C1590 C 0.42308 1.04504 0.00102
 C1591 C 0.40541 1.03571 -0.00677
 C1592 C 0.38683 1.04577 -0.00626
 H1593 H 0.33725 1.11842 -0.01235
 H1594 H 0.30257 1.13183 -0.01199
 H1595 H 0.28279 1.07986 0.02335
 H1596 H 0.31736 1.06645 0.02256
 H1597 H 0.40226 1.08995 0.01608
 H1598 H 0.43498 1.07246 0.01523
 H1599 H 0.40587 1.02055 -0.01316
 H1600 H 0.37338 1.03824 -0.01217
 C1601 C 0.00336 1.16885 1.08325
 C1602 C -0.00249 1.16972 1.10368
 C1603 C -0.00354 1.18840 1.11360
 C1604 C 0.00095 1.20665 1.10319
 C1605 C 0.00696 1.20554 1.08258
 C1606 C 0.00801 1.18676 1.07268
 C1607 C 0.00510 1.14945 1.07345
 C1608 C 0.00644 1.13293 1.06572
 C1609 C 0.00772 1.11302 1.05692
 C1610 C 0.00049 1.09618 1.06783
 C1611 C 0.00091 1.07686 1.05909
 C1612 C 0.00856 1.07413 1.03925
 C1613 C 0.01619 1.09114 1.02857
 C1614 C 0.01574 1.11046 1.03737
 H1615 H -0.00591 1.15591 1.11207
 H1616 H -0.00748 1.18856 1.12963
 H1617 H 0.01153 1.21889 1.07413
 H1618 H 0.01283 1.18618 1.05690
 H1619 H -0.00572 1.09803 1.08301
 H1620 H -0.00507 1.06414 1.06776
 H1621 H 0.02219 1.08960 1.01328
 H1622 H 0.02140 1.12342 1.02882
 C1623 C 0.49732 0.67611 0.58335
 C1624 C 0.49167 0.67681 0.60385
 C1625 C 0.49100 0.69537 0.61404
 C1626 C 0.49570 0.71370 0.60386
 C1627 C 0.50139 0.71279 0.58314
 C1628 C 0.50206 0.69411 0.57297
 C1629 C 0.49901 0.65675 0.57338
 C1630 C 0.50042 0.64026 0.56559
 C1631 C 0.50193 0.62034 0.55676
 C1632 C 0.49481 0.60340 0.56758
 C1633 C 0.49569 0.58405 0.55889
 C1634 C 0.50372 0.58139 0.53919
 C1635 C 0.51119 0.59852 0.52859
 C1636 C 0.51028 0.61785 0.53733
 H1637 H 0.48819 0.66293 0.61211
 H1638 H 0.48731 0.69536 0.63013
 H1639 H 0.50606 0.72620 0.57484
 H1640 H 0.50673 0.69368 0.55714
 H1641 H 0.48836 0.60517 0.58267
 H1642 H 0.48980 0.57125 0.56750
 H1643 H 0.51746 0.59705 0.51340
 H1644 H 0.51589 0.63088 0.52884
 C1645 C -0.00403 0.67262 0.41734
 C1646 C 0.00191 0.67331 0.39693
 C1647 C 0.00277 0.69183 0.38665
 C1648 C -0.00201 0.71013 0.39666
 C1649 C -0.00814 0.70920 0.41726
 C1650 C -0.00900 0.69056 0.42753
 C1651 C -0.00552 0.65330 0.42743
 C1652 C -0.00660 0.63676 0.43522
 C1653 C -0.00754 0.61675 0.44393
 C1654 C -0.00116 0.60008 0.43246
 C1655 C -0.00132 0.58064 0.44103
 C1656 C -0.00787 0.57765 0.46124
 C1657 C -0.01464 0.59451 0.47251
 C1658 C -0.01445 0.61393 0.46389
 H1659 H 0.00557 0.65947 0.38883
 H1660 H 0.00683 0.69183 0.37065
 H1661 H -0.01289 0.72259 0.42540
 H1662 H -0.01389 0.69010 0.44329
 H1663 H 0.00418 0.60213 0.41696
 H1664 H 0.00396 0.56804 0.43192
 H1665 H -0.01980 0.59277 0.48810
 H1666 H -0.01945 0.62676 0.47286
 C1667 C 0.49813 1.17531 -0.08206
 C1668 C 0.50192 1.17592 -0.10298
 C1669 C 0.50293 1.19451 -0.11311
 C1670 C 0.50037 1.21292 -0.10249
 C1671 C 0.49644 1.21210 -0.08136
 C1672 C 0.49542 1.19339 -0.07124
 C1673 C 0.49679 1.15599 -0.07196
 C1674 C 0.49583 1.13948 -0.06412
 C1675 C 0.49496 1.11953 -0.05529
 C1676 C 0.50095 1.10274 -0.06679
 C1677 C 0.50074 1.08334 -0.05813
 C1678 C 0.49452 1.08052 -0.03779
 C1679 C 0.48820 1.09750 -0.02646
 C1680 C 0.48844 1.11688 -0.03517
 H1681 H 0.50391 1.16199 -0.11152
 H1682 H 0.50552 1.19454 -0.12942
 H1683 H 0.49369 1.22562 -0.07254
 H1684 H 0.49230 1.19301 -0.05502
 H1685 H 0.50599 1.10466 -0.08241
 H1686 H 0.50567 1.07063 -0.06730
 H1687 H 0.48330 1.09590 -0.01078
 H1688 H 0.48374 1.12981 -0.02616
 C1689 C 0.50046 0.33064 -0.09141
 C1690 C 0.49213 0.31467 -0.08000
 C1691 C 0.49154 0.29500 -0.08799
 C1692 C 0.49944 0.29092 -0.10753
 C1693 C 0.50722 0.30727 -0.11908
 C1694 C 0.50781 0.32694 -0.11104
 C1695 C 0.50179 0.35070 -0.08279
 C1696 C 0.50298 0.36736 -0.07526
 C1697 C 0.50438 0.38708 -0.06588
 C1698 C 0.51332 0.38913 -0.04664
 C1699 C 0.51405 0.40810 -0.03710
 C1700 C 0.50580 0.42533 -0.04669
 C1701 C 0.49713 0.42314 -0.06620
 C1702 C 0.49642 0.40414 -0.07571
 H1703 H 0.48620 0.31740 -0.06485
 H1704 H 0.48478 0.28307 -0.07882
 H1705 H 0.51324 0.30503 -0.13419
 H1706 H 0.51421 0.33922 -0.12006
 H1707 H 0.51953 0.37602 -0.03891
 H1708 H 0.52085 0.40919 -0.02211
 H1709 H 0.49064 0.43604 -0.07404
 H1710 H 0.48947 0.40271 -0.09061
 C1711 C -0.00224 -0.17248 0.40829
 C1712 C -0.00980 -0.18857 0.42006
 C1713 C -0.01110 -0.20812 0.41185
 C1714 C -0.00467 -0.21201 0.39172
 C1715 C 0.00217 -0.19547 0.37981
 C1716 C 0.00348 -0.17592 0.38808
 C1717 C -0.00007 -0.15255 0.41712
 C1718 C 0.00178 -0.13601 0.42481
 C1719 C 0.00383 -0.11640 0.43436
 C1720 C 0.01229 -0.11482 0.45387
 C1721 C 0.01329 -0.09598 0.46366
 C1722 C 0.00579 -0.07842 0.45407
 C1723 C -0.00224 -0.08011 0.43423
 C1724 C -0.00322 -0.09898 0.42448
 H1725 H -0.01452 -0.18604 0.43567
 H1726 H -0.01719 -0.22014 0.42137
 H1727 H 0.00698 -0.19745 0.36424
 H1728 H 0.00921 -0.16353 0.37876
 H1729 H 0.01780 -0.12822 0.46166
 H1730 H 0.01956 -0.09528 0.47891
 H1731 H -0.00815 -0.06694 0.42637
 H1732 H -0.00978 -0.10002 0.40937
 C1733 C 0.50350 -0.16899 0.59234
 C1734 C 0.51038 -0.18545 0.58087
 C1735 C 0.50974 -0.20509 0.58901
 C1736 C 0.50205 -0.20865 0.60877
 C1737 C 0.49571 -0.19186 0.62037
 C1738 C 0.49634 -0.17221 0.61217
 C1739 C 0.50330 -0.14894 0.58347
 C1740 C 0.50294 -0.13234 0.57563
 C1741 C 0.50232 -0.11276 0.56577
 C1742 C 0.49443 -0.11111 0.54604
 C1743 C 0.49390 -0.09224 0.53626
 C1744 C 0.50129 -0.07465 0.54609
 C1745 C 0.50913 -0.07646 0.56599
 C1746 C 0.50963 -0.09539 0.57574
 H1747 H 0.51611 -0.18314 0.56555
 H1748 H 0.51538 -0.21743 0.57978
 H1749 H 0.48986 -0.19377 0.63561
 H1750 H 0.49101 -0.15957 0.62122
 H1751 H 0.48872 -0.12445 0.53817
 H1752 H 0.48776 -0.09146 0.52097
 H1753 H 0.51494 -0.06328 0.57403
 H1754 H 0.51577 -0.09648 0.59102
 C1755 C 0.00488 0.32358 1.08884
 C1756 C -0.00231 0.32067 1.10871
 C1757 C -0.00224 0.30127 1.11749
 C1758 C 0.00484 0.28442 1.10644
 C1759 C 0.01264 0.28772 1.08668
 C1760 C 0.01257 0.30711 1.07795
 C1761 C 0.00400 0.34334 1.07942
 C1762 C 0.00314 0.35975 1.07126
 C1763 C 0.00204 0.37923 1.06130
 C1764 C 0.00860 0.39679 1.07142
 C1765 C 0.00767 0.41569 1.06169
 C1766 C 0.00015 0.41729 1.04165
 C1767 C -0.00648 0.39952 1.03164
 C1768 C -0.00552 0.38064 1.04141
 H1769 H -0.00821 0.33335 1.11734
 H1770 H -0.00814 0.29959 1.13273
 H1771 H 0.01888 0.27537 1.07787
 H1772 H 0.01838 0.30921 1.06263
 H1773 H 0.01447 0.39589 1.08682
 H1774 H 0.01289 0.42902 1.06988
 H1775 H -0.01234 0.40015 1.01623
 H1776 H -0.01065 0.36714 1.03343
 C1777 C 0.76242 0.32808 0.06828
 C1778 C 0.75057 0.34547 0.06904
 C1779 C 0.74621 0.35623 0.05135
 C1780 C 0.75350 0.34989 0.03210
 C1781 C 0.76608 0.33258 0.03157
 C1782 C 0.77036 0.32167 0.04954
 C1783 C 0.76557 0.31712 0.08707
 C1784 C 0.76661 0.30940 0.10375
 C1785 C 0.76632 0.30153 0.12430
 C1786 C 0.75692 0.31280 0.13969
 C1787 C 0.75541 0.30506 0.15950
 C1788 C 0.76330 0.28583 0.16428
 C1789 C 0.77305 0.27473 0.14876
 C1790 C 0.77450 0.28252 0.12892
 H1791 H 0.74459 0.35080 0.08346
 H1792 H 0.73762 0.37000 0.05327
 H1793 H 0.77196 0.32681 0.01735
 H1794 H 0.77959 0.30814 0.04875
 H1795 H 0.75047 0.32753 0.13630
 H1796 H 0.74784 0.31404 0.17099
 H1797 H 0.77931 0.25987 0.15184
 H1798 H 0.78176 0.27361 0.11715
 C1799 C 0.26733 0.83545 0.57856
 C1800 C 0.26058 0.85553 0.57856
 C1801 C 0.25642 0.86535 0.56022
 C1802 C 0.25888 0.85523 0.54152
 C1803 C 0.26654 0.83536 0.54150
 C1804 C 0.27061 0.82544 0.55999
 C1805 C 0.26932 0.82502 0.59777
 C1806 C 0.26986 0.81704 0.61432
 C1807 C 0.26932 0.80819 0.63441
 C1808 C 0.25938 0.81840 0.65018
 C1809 C 0.25754 0.80944 0.66943
 C1810 C 0.26562 0.79006 0.67321
 C1811 C 0.27600 0.78010 0.65735
 C1812 C 0.27779 0.78910 0.63808
 H1813 H 0.25802 0.86344 0.59280
 H1814 H 0.25096 0.88083 0.56067
 H1815 H 0.26855 0.82726 0.52729
 H1816 H 0.27578 0.80986 0.55983
 H1817 H 0.25273 0.83317 0.64750
 H1818 H 0.24950 0.81757 0.68124
 H1819 H 0.28243 0.76519 0.65970
 H1820 H 0.28548 0.78104 0.62598
 C1821 C 0.75714 0.67845 0.56985
 C1822 C 0.73988 0.68060 0.55765
 C1823 C 0.73823 0.66987 0.53938
 C1824 C 0.75386 0.65689 0.53310
 C1825 C 0.77169 0.65578 0.54473
 C1826 C 0.77329 0.66647 0.56311
 C1827 C 0.75710 0.68672 0.59013
 C1828 C 0.75611 0.69308 0.60732
 C1829 C 0.75417 0.70029 0.62791
 C1830 C 0.74432 0.71863 0.63176
 C1831 C 0.74206 0.72551 0.65176
 C1832 C 0.74962 0.71410 0.66825
 C1833 C 0.75929 0.69553 0.66420
 C1834 C 0.76152 0.68869 0.64416
 H1835 H 0.72727 0.68977 0.56273
 H1836 H 0.72433 0.67091 0.53064
 H1837 H 0.78371 0.64557 0.54042
 H1838 H 0.78666 0.66459 0.57253
 H1839 H 0.73842 0.72764 0.61929
 H1840 H 0.73458 0.73989 0.65427
 H1841 H 0.76534 0.68638 0.67648
 H1842 H 0.76903 0.67437 0.64134
 C1843 C 0.25324 0.17328 0.07767
 C1844 C 0.25888 0.18225 0.05907
 C1845 C 0.25775 0.17093 0.04096
 C1846 C 0.25074 0.15072 0.04141
 C1847 C 0.24580 0.14175 0.06026
 C1848 C 0.24702 0.15296 0.07820
 C1849 C 0.25311 0.18462 0.09641
 C1850 C 0.25233 0.19283 0.11281
 C1851 C 0.25100 0.20133 0.13296
 C1852 C 0.24208 0.22030 0.13612
 C1853 C 0.24048 0.22816 0.15587
 C1854 C 0.24776 0.21709 0.17273
 C1855 C 0.25645 0.19792 0.16935
 C1856 C 0.25804 0.19013 0.14962
 H1857 H 0.26379 0.19799 0.05852
 H1858 H 0.26166 0.17812 0.02661
 H1859 H 0.24080 0.12606 0.06112
 H1860 H 0.24279 0.14581 0.09250
 H1861 H 0.23641 0.22902 0.12334
 H1862 H 0.23376 0.24298 0.15789
 H1863 H 0.26226 0.18898 0.18191
 H1864 H 0.26479 0.17534 0.14737
 C1865 C 0.26527 0.17700 0.93355
 C1866 C 0.26499 0.18576 0.95304
 C1867 C 0.26157 0.17350 0.97027
 C1868 C 0.25808 0.15255 0.96797
 C1869 C 0.25936 0.14384 0.94849
 C1870 C 0.26296 0.15597 0.93144
 C1871 C 0.26587 0.18920 0.91531
 C1872 C 0.26519 0.19776 0.89905
 C1873 C 0.26313 0.20599 0.87881
 C1874 C 0.27045 0.22540 0.87376
 C1875 C 0.26811 0.23287 0.85386
 C1876 C 0.25841 0.22098 0.83881
 C1877 C 0.25113 0.20152 0.84417
 C1878 C 0.25348 0.19414 0.86395
 H1879 H 0.26667 0.20204 0.95484
 H1880 H 0.26061 0.18047 0.98519
 H1881 H 0.25697 0.12767 0.94641
 H1882 H 0.26313 0.14901 0.91647
 H1883 H 0.27793 0.23471 0.88515
 H1884 H 0.27391 0.24789 0.85027
 H1885 H 0.24362 0.19190 0.83306
 H1886 H 0.24775 0.17911 0.86768
 C1887 C 0.76494 0.67383 0.42627
 C1888 C 0.76842 0.68226 0.44559
 C1889 C 0.76510 0.67049 0.46316
 C1890 C 0.75802 0.65036 0.46144
 C1891 C 0.75534 0.64188 0.44198
 C1892 C 0.75879 0.65352 0.42456
 C1893 C 0.76603 0.68590 0.40800
 C1894 C 0.76563 0.69455 0.39179
 C1895 C 0.76375 0.70302 0.37165
 C1896 C 0.77083 0.72260 0.36699
 C1897 C 0.76838 0.73044 0.34726
 C1898 C 0.75876 0.71875 0.33201
 C1899 C 0.75176 0.69909 0.33697
 C1900 C 0.75425 0.69134 0.35658
 H1901 H 0.77311 0.69800 0.44709
 H1902 H 0.76720 0.67734 0.47802
 H1903 H 0.75022 0.62629 0.44024
 H1904 H 0.75607 0.64683 0.40971
 H1905 H 0.77817 0.73180 0.37857
 H1906 H 0.77396 0.74561 0.34396
 H1907 H 0.74434 0.68960 0.32569
 H1908 H 0.74867 0.67617 0.36002
 C1909 C 0.25740 0.82226 0.43287
 C1910 C 0.27385 0.83372 0.44029
 C1911 C 0.27198 0.84464 0.45853
 C1912 C 0.25355 0.84435 0.46931
 C1913 C 0.23759 0.83185 0.46238
 C1914 C 0.23951 0.82089 0.44430
 C1915 C 0.25782 0.81362 0.41270
 C1916 C 0.25713 0.80694 0.39558
 C1917 C 0.25541 0.79947 0.37500
 C1918 C 0.26450 0.81015 0.35890
 C1919 C 0.26211 0.80340 0.33882
 C1920 C 0.25050 0.78585 0.33452
 C1921 C 0.24140 0.77523 0.35084
 C1922 C 0.24383 0.78202 0.37090
 H1923 H 0.28773 0.83499 0.43151
 H1924 H 0.28439 0.85436 0.46345
 H1925 H 0.22327 0.83134 0.47049
 H1926 H 0.22668 0.81210 0.43874
 H1927 H 0.27337 0.82376 0.36187
 H1928 H 0.26939 0.81193 0.32669
 H1929 H 0.23243 0.76164 0.34814
 H1930 H 0.23658 0.77371 0.38321
 C1931 C 0.75468 0.32234 0.92551
 C1932 C 0.74206 0.33918 0.92491
 C1933 C 0.73948 0.35122 0.94210
 C1934 C 0.74938 0.34676 0.96073
 C1935 C 0.76245 0.32980 0.96107
 C1936 C 0.76499 0.31765 0.94361
 C1937 C 0.75669 0.31050 0.90712
 C1938 C 0.75709 0.30205 0.89077
 C1939 C 0.75651 0.29343 0.87054
 C1940 C 0.76706 0.30303 0.85465
 C1941 C 0.76505 0.29603 0.83462
 C1942 C 0.75237 0.27930 0.83008
 C1943 C 0.74197 0.26961 0.84621
 C1944 C 0.74399 0.27667 0.86626
 H1945 H 0.73425 0.34321 0.91094
 H1946 H 0.73021 0.36454 0.94014
 H1947 H 0.77024 0.32532 0.97484
 H1948 H 0.77487 0.30459 0.94426
 H1949 H 0.77659 0.31617 0.85770
 H1950 H 0.77336 0.30385 0.82267
 H1951 H 0.73211 0.25668 0.84334
 H1952 H 0.73552 0.26927 0.87837
 C1953 C 0.81736 0.43090 0.25535
 C1954 C 0.81574 0.44324 0.23806
 C1955 C 0.82683 0.46136 0.23679
 C1956 C 0.83967 0.46739 0.25284
 C1957 C 0.84016 0.45569 0.27074
 C1958 C 0.82911 0.43744 0.27195
 C1959 C 0.80900 0.41061 0.25483
 C1960 C 0.80274 0.39338 0.25347
 C1961 C 0.79591 0.37266 0.25115
 C1962 C 0.77917 0.36811 0.23879
 C1963 C 0.77290 0.34793 0.23608
 C1964 C 0.78334 0.33196 0.24570
 C1965 C 0.80028 0.33672 0.25795
 C1966 C 0.80650 0.35690 0.26063
 H1967 H 0.80678 0.43833 0.22509
 H1968 H 0.82630 0.47013 0.22281
 H1969 H 0.85024 0.45981 0.28309
 H1970 H 0.83060 0.42793 0.28535
 H1971 H 0.77096 0.38017 0.23123
 H1972 H 0.75978 0.34487 0.22658
 H1973 H 0.80866 0.32487 0.26563
 H1974 H 0.81959 0.36022 0.27010
 C1975 C 0.32273 0.92926 0.75770
 C1976 C 0.32318 0.93974 0.73916
 C1977 C 0.33386 0.95806 0.73748
 C1978 C 0.34426 0.96619 0.75436
 C1979 C 0.34286 0.95621 0.77326
 C1980 C 0.33222 0.93772 0.77489
 C1981 C 0.31393 0.90915 0.75834
 C1982 C 0.30708 0.89209 0.75787
 C1983 C 0.29938 0.87158 0.75651
 C1984 C 0.28169 0.86740 0.74541
 C1985 C 0.27459 0.84739 0.74348
 C1986 C 0.28514 0.83123 0.75263
 C1987 C 0.30298 0.83562 0.76369
 C1988 C 0.31003 0.85563 0.76558
 H1989 H 0.31589 0.93339 0.72577
 H1990 H 0.33451 0.96559 0.72280
 H1991 H 0.35088 0.96210 0.78643
 H1992 H 0.33202 0.92969 0.78932
 H1993 H 0.27340 0.87961 0.73817
 H1994 H 0.26081 0.84462 0.73490
 H1995 H 0.31149 0.82361 0.77096
 H1996 H 0.32383 0.85866 0.77407
 C1997 C 0.18530 0.93500 0.26275
 C1998 C 0.18709 0.94547 0.24424
 C1999 C 0.17554 0.96282 0.24069
 C2000 C 0.16206 0.96994 0.25562
 C2001 C 0.16129 0.96016 0.27464
 C2002 C 0.17281 0.94270 0.27816
 C2003 C 0.19403 0.91509 0.26466
 C2004 C 0.20038 0.89795 0.26519
 C2005 C 0.20693 0.87712 0.26473
 C2006 C 0.19396 0.86225 0.25664
 C2007 C 0.20029 0.84210 0.25521
 C2008 C 0.21977 0.83646 0.26186
 C2009 C 0.23265 0.85150 0.27020
 C2010 C 0.22627 0.87170 0.27158
 H2011 H 0.19657 0.93960 0.23214
 H2012 H 0.17632 0.97009 0.22588
 H2013 H 0.15070 0.96503 0.28617
 H2014 H 0.17111 0.93459 0.29246
 H2015 H 0.17898 0.86627 0.25123
 H2016 H 0.18993 0.83098 0.24876
 H2017 H 0.24774 0.84772 0.27546
 H2018 H 0.23647 0.88311 0.27780
 C2019 C 0.67904 0.42611 0.76390
 C2020 C 0.68828 0.44540 0.76324
 C2021 C 0.67650 0.46273 0.75954
 C2022 C 0.65552 0.46074 0.75614
 C2023 C 0.64632 0.44149 0.75780
 C2024 C 0.65799 0.42434 0.76167
 C2025 C 0.69078 0.40773 0.76477
 C2026 C 0.69900 0.39140 0.76435
 C2027 C 0.70688 0.37108 0.76258
 C2028 C 0.72607 0.36593 0.77011
 C2029 C 0.73324 0.34601 0.76796
 C2030 C 0.72128 0.33104 0.75821
 C2031 C 0.70203 0.33650 0.75075
 C2032 C 0.69495 0.35629 0.75293
 H2033 H 0.70458 0.44695 0.76485
 H2034 H 0.68385 0.47746 0.75826
 H2035 H 0.63014 0.43965 0.75543
 H2036 H 0.65065 0.40954 0.76211
 H2037 H 0.73546 0.37725 0.77761
 H2038 H 0.74811 0.34235 0.77389
 H2039 H 0.69235 0.32547 0.74320
 H2040 H 0.68008 0.36008 0.74703
 C2041 C 0.67450 0.57184 0.75220
 C2042 C 0.65425 0.57141 0.74592
 C2043 C 0.64390 0.55298 0.74421
 C2044 C 0.65365 0.53457 0.74870
 C2045 C 0.67376 0.53504 0.75582
 C2046 C 0.68422 0.55366 0.75744
 C2047 C 0.68506 0.59109 0.75232
 C2048 C 0.69271 0.60780 0.75161
 C2049 C 0.70074 0.62817 0.75020
 C2050 C 0.68980 0.64434 0.75847
 C2051 C 0.69708 0.66427 0.75658
 C2052 C 0.71545 0.66835 0.74632
 C2053 C 0.72625 0.65197 0.73790
 C2054 C 0.71891 0.63204 0.73981
 H2055 H 0.64653 0.58536 0.74197
 H2056 H 0.62826 0.55309 0.73912
 H2057 H 0.68152 0.52104 0.75941
 H2058 H 0.69991 0.55383 0.76237
 H2059 H 0.67561 0.64154 0.76638
 H2060 H 0.68839 0.67643 0.76331
 H2061 H 0.74046 0.65451 0.72996
 H2062 H 0.72741 0.61967 0.73318
 C2063 C 0.17108 0.07868 0.25548
 C2064 C 0.15077 0.07803 0.24935
 C2065 C 0.14051 0.05948 0.24803
 C2066 C 0.15042 0.04124 0.25282
 C2067 C 0.17055 0.04199 0.25985
 C2068 C 0.18090 0.06067 0.26107
 C2069 C 0.18169 0.09788 0.25504
 C2070 C 0.18961 0.11444 0.25398
 C2071 C 0.19808 0.13460 0.25233
 C2072 C 0.18685 0.15122 0.25913
 C2073 C 0.19479 0.17090 0.25744
 C2074 C 0.21413 0.17429 0.24889
 C2075 C 0.22519 0.15747 0.24180
 C2076 C 0.21720 0.13777 0.24351
 H2077 H 0.14298 0.09185 0.24511
 H2078 H 0.12488 0.05936 0.24290
 H2079 H 0.17849 0.02812 0.26354
 H2080 H 0.19663 0.06102 0.26587
 H2081 H 0.17197 0.14896 0.26582
 H2082 H 0.18584 0.18343 0.26308
 H2083 H 0.24014 0.15949 0.23520
 H2084 H 0.22595 0.12502 0.23805
 C2085 C 0.32412 0.07426 0.76604
 C2086 C 0.33416 0.06427 0.78196
 C2087 C 0.34425 0.04597 0.77822
 C2088 C 0.34452 0.03769 0.75851
 C2089 C 0.33361 0.04735 0.74288
 C2090 C 0.32348 0.06549 0.74664
 C2091 C 0.31594 0.09427 0.76884
 C2092 C 0.30947 0.11132 0.77002
 C2093 C 0.30200 0.13182 0.77024
 C2094 C 0.31234 0.14702 0.75938
 C2095 C 0.30441 0.16663 0.75818
 C2096 C 0.28595 0.17130 0.76783
 C2097 C 0.27591 0.15600 0.77912
 C2098 C 0.28387 0.13639 0.78027
 H2099 H 0.33485 0.07099 0.79701
 H2100 H 0.35281 0.03902 0.79040
 H2101 H 0.33354 0.04119 0.72757
 H2102 H 0.31579 0.07308 0.73421
 H2103 H 0.32635 0.14361 0.75148
 H2104 H 0.31256 0.17800 0.74939
 H2105 H 0.26168 0.15903 0.78676
 H2106 H 0.27570 0.12473 0.78865
 C2107 C 0.83073 0.57620 0.26319
 C2108 C 0.85095 0.57620 0.25676
 C2109 C 0.86087 0.55790 0.25335
 C2110 C 0.85070 0.53925 0.25628
 C2111 C 0.83065 0.53926 0.26358
 C2112 C 0.82064 0.55770 0.26689
 C2113 C 0.82034 0.59530 0.26460
 C2114 C 0.81247 0.61178 0.26476
 C2115 C 0.80384 0.63179 0.26394
 C2116 C 0.81431 0.64741 0.25382
 C2117 C 0.80578 0.66672 0.25214
 C2118 C 0.78657 0.67069 0.26057
 C2119 C 0.77627 0.65492 0.27096
 C2120 C 0.78485 0.63561 0.27259
 H2121 H 0.85893 0.59038 0.25391
 H2122 H 0.87648 0.55834 0.24816
 H2123 H 0.82251 0.52508 0.26592
 H2124 H 0.80495 0.55754 0.27184
 H2125 H 0.82902 0.64461 0.24702
 H2126 H 0.81415 0.67845 0.24407
 H2127 H 0.76147 0.65741 0.27765
 H2128 H 0.77659 0.62362 0.28042
 C2129 C 0.93212 0.25766 0.17852
 C2130 C 0.94092 0.23839 0.17859
 C2131 C 0.95853 0.23483 0.16737
 C2132 C 0.96761 0.25052 0.15590
 C2133 C 0.95932 0.27009 0.15673
 C2134 C 0.94157 0.27363 0.16791
 C2135 C 0.91233 0.26020 0.18744
 C2136 C 0.89530 0.26121 0.19410
 C2137 C 0.87459 0.26120 0.20110
 C2138 C 0.85943 0.25290 0.18864
 C2139 C 0.83940 0.25173 0.19550
 C2140 C 0.83416 0.25886 0.21501
 C2141 C 0.84947 0.26747 0.22736
 C2142 C 0.86957 0.26858 0.22044
 H2143 H 0.93370 0.22589 0.18665
 H2144 H 0.96471 0.21963 0.16709
 H2145 H 0.96579 0.28232 0.14781
 H2146 H 0.93479 0.28857 0.16758
 H2147 H 0.86315 0.24708 0.17366
 H2148 H 0.82805 0.24507 0.18554
 H2149 H 0.84599 0.27310 0.24246
 H2150 H 0.88120 0.27497 0.23025
 C2151 C 0.43065 0.76469 0.68271
 C2152 C 0.44007 0.78069 0.67210
 C2153 C 0.45730 0.77701 0.66015
 C2154 C 0.46508 0.75727 0.65855
 C2155 C 0.45609 0.74154 0.67001
 C2156 C 0.43901 0.74523 0.68200
 C2157 C 0.41120 0.76739 0.69232
 C2158 C 0.39435 0.76840 0.69944
 C2159 C 0.37373 0.76818 0.70679
 C2160 C 0.36916 0.77321 0.72701
 C2161 C 0.34919 0.77127 0.73422
 C2162 C 0.33363 0.76410 0.72130
 C2163 C 0.33839 0.75955 0.70089
 C2164 C 0.35825 0.76158 0.69374
 H2165 H 0.43361 0.79577 0.67236
 H2166 H 0.46372 0.78930 0.65127
 H2167 H 0.46189 0.72621 0.66914
 H2168 H 0.43182 0.73270 0.69003
 H2169 H 0.38104 0.77825 0.73728
 H2170 H 0.34606 0.77490 0.75000
 H2171 H 0.32682 0.75414 0.69046
 H2172 H 0.36162 0.75758 0.67809
 C2173 C 0.42817 0.25826 0.82359
 C2174 C 0.43719 0.27495 0.83342
 C2175 C 0.45569 0.27264 0.84371
 C2176 C 0.46507 0.25356 0.84442
 C2177 C 0.45642 0.23723 0.83361
 C2178 C 0.43810 0.23958 0.82327
 C2179 C 0.40797 0.25946 0.81535
 C2180 C 0.39084 0.25924 0.80889
 C2181 C 0.37030 0.25784 0.80152
 C2182 C 0.35446 0.26678 0.81242
 C2183 C 0.33440 0.26451 0.80576
 C2184 C 0.32991 0.25318 0.78810
 C2185 C 0.34599 0.24425 0.77727
 C2186 C 0.36601 0.24656 0.78396
 H2187 H 0.42958 0.28947 0.83381
 H2188 H 0.46200 0.28538 0.85208
 H2189 H 0.46349 0.22242 0.83379
 H2190 H 0.43128 0.22658 0.81571
 H2191 H 0.35760 0.27540 0.82615
 H2192 H 0.32243 0.27163 0.81445
 H2193 H 0.34314 0.23548 0.76359
 H2194 H 0.37815 0.23942 0.77550
 C2195 C 0.92634 0.75480 0.32123
 C2196 C 0.93808 0.77180 0.32662
 C2197 C 0.95604 0.76938 0.33786
 C2198 C 0.96227 0.74987 0.34421
 C2199 C 0.95064 0.73292 0.33773
 C2200 C 0.93293 0.73541 0.32645
 C2201 C 0.90687 0.75683 0.31150
 C2202 C 0.89015 0.75720 0.30402
 C2203 C 0.86989 0.75647 0.29579
 C2204 C 0.85400 0.76599 0.30609
 C2205 C 0.83407 0.76404 0.29898
 C2206 C 0.82972 0.75247 0.28144
 C2207 C 0.84586 0.74307 0.27110
 C2208 C 0.86578 0.74505 0.27826
 H2209 H 0.93306 0.78694 0.32268
 H2210 H 0.96411 0.78295 0.34258
 H2211 H 0.95518 0.71754 0.34116
 H2212 H 0.92411 0.72211 0.32216
 H2213 H 0.85697 0.77470 0.31979
 H2214 H 0.82208 0.77153 0.30731
 H2215 H 0.84311 0.73410 0.25754
 H2216 H 0.87794 0.73744 0.27028
 C2217 C 0.07009 0.76181 0.32561
 C2218 C 0.06067 0.77720 0.33680
 C2219 C 0.04200 0.77344 0.34635
 C2220 C 0.03269 0.75425 0.34485
 C2221 C 0.04183 0.73918 0.33288
 C2222 C 0.06039 0.74296 0.32329
 C2223 C 0.09043 0.76449 0.31803
 C2224 C 0.10770 0.76579 0.31206
 C2225 C 0.12841 0.76636 0.30510
 C2226 C 0.13351 0.77669 0.28715
 C2227 C 0.15335 0.77595 0.27963
 C2228 C 0.16837 0.76478 0.28994
 C2229 C 0.16318 0.75486 0.30825
 C2230 C 0.14332 0.75563 0.31574
 H2231 H 0.06814 0.79178 0.33885
 H2232 H 0.03559 0.78505 0.35596
 H2233 H 0.03495 0.72423 0.33161
 H2234 H 0.06757 0.73091 0.31474
 H2235 H 0.12208 0.78499 0.27877
 H2236 H 0.15677 0.78381 0.26551
 H2237 H 0.17432 0.74614 0.31658
 H2238 H 0.13951 0.74753 0.32963
 C2239 C 0.57357 0.26119 0.82482
 C2240 C 0.56355 0.24241 0.82382
 C2241 C 0.54520 0.23947 0.83407
 C2242 C 0.53662 0.25532 0.84544
 C2243 C 0.54623 0.27443 0.84559
 C2244 C 0.56469 0.27735 0.83537
 C2245 C 0.59369 0.26312 0.81648
 C2246 C 0.61076 0.26374 0.80988
 C2247 C 0.63121 0.26348 0.80220
 C2248 C 0.64621 0.25286 0.81282
 C2249 C 0.66580 0.25135 0.80478
 C2250 C 0.67062 0.26042 0.78592
 C2251 C 0.65550 0.27142 0.77558
 C2252 C 0.63593 0.27290 0.78367
 H2253 H 0.57029 0.22979 0.81574
 H2254 H 0.53803 0.22460 0.83373
 H2255 H 0.54019 0.28670 0.85458
 H2256 H 0.57241 0.29191 0.83636
 H2257 H 0.64268 0.24545 0.82717
 H2258 H 0.67703 0.24279 0.81315
 H2259 H 0.65865 0.27863 0.76106
 H2260 H 0.62442 0.28109 0.77529
 C2261 C 0.57336 0.75434 0.67565
 C2262 C 0.56527 0.77162 0.66622
 C2263 C 0.54643 0.77044 0.65633
 C2264 C 0.53572 0.75191 0.65563
 C2265 C 0.54351 0.73497 0.66599
 C2266 C 0.56219 0.73619 0.67593
 C2267 C 0.59366 0.75447 0.68377
 C2268 C 0.61076 0.75352 0.69024
 C2269 C 0.63116 0.75154 0.69780
 C2270 C 0.64754 0.75944 0.68666
 C2271 C 0.66738 0.75724 0.69391
 C2272 C 0.67110 0.74705 0.71242
 C2273 C 0.65450 0.73893 0.72335
 C2274 C 0.63470 0.74116 0.71606
 H2275 H 0.57383 0.78574 0.66589
 H2276 H 0.54079 0.78364 0.64830
 H2277 H 0.53542 0.72057 0.66585
 H2278 H 0.56825 0.72275 0.68321
 H2279 H 0.64498 0.76737 0.67242
 H2280 H 0.67975 0.76374 0.68513
 H2281 H 0.65675 0.73105 0.73766
 H2282 H 0.62214 0.73484 0.72473
 C2283 C 0.07539 0.25102 0.17638
 C2284 C 0.06484 0.23250 0.17658
 C2285 C 0.04653 0.23051 0.16609
 C2286 C 0.03850 0.24702 0.15521
 C2287 C 0.04856 0.26591 0.15596
 C2288 C 0.06703 0.26786 0.16642
 C2289 C 0.09543 0.25197 0.18508
 C2290 C 0.11238 0.25178 0.19200
 C2291 C 0.13269 0.25080 0.20002
 C2292 C 0.13630 0.24105 0.21862
 C2293 C 0.15603 0.23989 0.22636
 C2294 C 0.17248 0.24847 0.21556
 C2295 C 0.16871 0.25797 0.19669
 C2296 C 0.14895 0.25911 0.18900
 H2297 H 0.07112 0.21939 0.18426
 H2298 H 0.03893 0.21585 0.16594
 H2299 H 0.04273 0.27879 0.14756
 H2300 H 0.07511 0.28226 0.16614
 H2301 H 0.12384 0.23442 0.22720
 H2302 H 0.15833 0.23250 0.24093
 H2303 H 0.18096 0.26478 0.18798
 H2304 H 0.14635 0.26654 0.17449
 C2305 C -0.08174 1.00386 0.82470
 C2306 C -0.10166 1.01094 0.82462
 C2307 C -0.11236 1.01231 0.80635
 C2308 C -0.10319 1.00704 0.78766
 C2309 C -0.08312 0.99971 0.78804
 C2310 C -0.07243 0.99833 0.80640
 C2311 C -0.07140 1.00133 0.84379
 C2312 C -0.06343 0.99924 0.86016
 C2313 C -0.05465 0.99700 0.88005
 C2314 C -0.06528 1.00391 0.89710
 C2315 C -0.05681 1.00218 0.91651
 C2316 C -0.03753 0.99348 0.91914
 C2317 C -0.02708 0.98629 0.90190
 C2318 C -0.03561 0.98806 0.88247
 H2319 H -0.10912 1.01491 0.83877
 H2320 H -0.12808 1.01694 0.80695
 H2321 H -0.07582 0.99429 0.77435
 H2322 H -0.05713 0.99243 0.80639
 H2323 H -0.08006 1.01080 0.89537
 H2324 H -0.06529 1.00787 0.92941
 H2325 H -0.01221 0.97954 0.90336
 H2326 H -0.02730 0.98261 0.86933
 C2327 C 0.41650 0.50659 0.32366
 C2328 C 0.39648 0.51332 0.32260
 C2329 C 0.38656 0.51422 0.30385
 C2330 C 0.39655 0.50867 0.28571
 C2331 C 0.41675 0.50180 0.28702
 C2332 C 0.42665 0.50091 0.30586
 C2333 C 0.42623 0.50482 0.34316
 C2334 C 0.43391 0.50336 0.35974
 C2335 C 0.44260 0.50178 0.37975
 C2336 C 0.43194 0.50917 0.39658
 C2337 C 0.44041 0.50802 0.41606
 C2338 C 0.45971 0.49944 0.41895
 C2339 C 0.47020 0.49182 0.40192
 C2340 C 0.46168 0.49300 0.38244
 H2341 H 0.38840 0.51752 0.33633
 H2342 H 0.37083 0.51887 0.30356
 H2343 H 0.42486 0.49643 0.27383
 H2344 H 0.44208 0.49539 0.30659
 H2345 H 0.41714 0.51595 0.39464
 H2346 H 0.43191 0.51404 0.42879
 H2347 H 0.48508 0.48514 0.40358
 H2348 H 0.47002 0.48720 0.36949
 C2349 C 0.58207 0.00020 0.32762
 C2350 C 0.57277 0.00697 0.30972
 C2351 C 0.58298 0.00562 0.29108
 C2352 C 0.60257 -0.00283 0.29007
 C2353 C 0.61171 -0.00945 0.30832
 C2354 C 0.60148 -0.00812 0.32686
 C2355 C 0.57227 0.00255 0.34700
 C2356 C 0.56473 0.00439 0.36360
 C2357 C 0.55634 0.00625 0.38369
 C2358 C 0.53663 0.01351 0.38640
 C2359 C 0.52830 0.01455 0.40596
 C2360 C 0.53960 0.00829 0.42305
 C2361 C 0.55957 0.00140 0.42014
 C2362 C 0.56785 0.00039 0.40059
 H2363 H 0.55784 0.01375 0.31024
 H2364 H 0.57574 0.01193 0.27774
 H2365 H 0.62708 -0.01516 0.30836
 H2366 H 0.60893 -0.01313 0.34069
 H2367 H 0.52763 0.01812 0.37339
 H2368 H 0.51290 0.01994 0.40762
 H2369 H 0.56871 -0.00352 0.43293
 H2370 H 0.58314 -0.00521 0.39862
 C2371 C 0.08271 0.50464 0.82540
 C2372 C 0.07258 0.50995 0.80745
 C2373 C 0.08263 0.50896 0.78868
 C2374 C 0.10295 0.50244 0.78767
 C2375 C 0.11295 0.49743 0.80598
 C2376 C 0.10290 0.49843 0.82462
 C2377 C 0.07257 0.50541 0.84474
 C2378 C 0.06465 0.50566 0.86127
 C2379 C 0.05571 0.50550 0.88121
 C2380 C 0.03579 0.51208 0.88401
 C2381 C 0.02696 0.51130 0.90337
 C2382 C 0.03800 0.50389 0.92017
 C2383 C 0.05813 0.49755 0.91719
 C2384 C 0.06690 0.49835 0.89783
 H2385 H 0.05695 0.51493 0.80796
 H2386 H 0.07439 0.51359 0.77527
 H2387 H 0.12867 0.49274 0.80581
 H2388 H 0.11091 0.49438 0.83846
 H2389 H 0.02702 0.51763 0.87122
 H2390 H 0.01145 0.51632 0.90510
 H2391 H 0.06706 0.49178 0.92976
 H2392 H 0.08236 0.49322 0.89578
 C2393 C 0.09082 0.50105 0.67050
 C2394 C 0.08272 0.51436 0.68495
 C2395 C 0.09121 0.51559 0.70444
 C2396 C 0.10792 0.50350 0.70973
 C2397 C 0.11619 0.49046 0.69498
 C2398 C 0.10767 0.48924 0.67550
 C2399 C 0.08145 0.49911 0.65077
 C2400 C 0.07336 0.49744 0.63437
 C2401 C 0.06349 0.49558 0.61489
 C2402 C 0.04356 0.48814 0.61372
 C2403 C 0.03365 0.48707 0.59490
 C2404 C 0.04355 0.49348 0.57695
 C2405 C 0.06373 0.50061 0.57828
 C2406 C 0.07359 0.50166 0.59712
 H2407 H 0.06970 0.52360 0.68122
 H2408 H 0.08465 0.52592 0.71541
 H2409 H 0.12881 0.48068 0.69866
 H2410 H 0.11401 0.47884 0.66445
 H2411 H 0.03560 0.48340 0.62740
 H2412 H 0.01814 0.48150 0.59448
 H2413 H 0.07184 0.50565 0.56481
 H2414 H 0.08903 0.50743 0.59785
 C2415 C 0.59096 1.00149 0.17263
 C2416 C 0.57971 1.00905 0.18896
 C2417 C 0.58800 1.00939 0.20857
 C2418 C 0.60770 1.00197 0.21224
 C2419 C 0.61914 0.99513 0.19549
 C2420 C 0.61079 0.99478 0.17588
 C2421 C 0.58193 1.00018 0.15268
 C2422 C 0.57401 0.99895 0.13614
 C2423 C 0.56418 0.99751 0.11658
 C2424 C 0.54451 0.98944 0.11517
 C2425 C 0.53461 0.98864 0.09633
 C2426 C 0.54426 0.99595 0.07858
 C2427 C 0.56418 1.00375 0.08014
 C2428 C 0.57404 1.00453 0.09901
 H2429 H 0.56441 1.01450 0.18660
 H2430 H 0.57889 1.01548 0.22080
 H2431 H 0.63438 0.98956 0.19736
 H2432 H 0.61971 0.98901 0.16331
 H2433 H 0.53673 0.98396 0.12868
 H2434 H 0.51930 0.98255 0.09574
 H2435 H 0.57208 1.00951 0.06683
 H2436 H 0.58927 1.01080 0.09992
 C2437 C 0.40890 0.50520 0.16813
 C2438 C 0.41917 0.51507 0.18397
 C2439 C 0.41103 0.51511 0.20361
 C2440 C 0.39247 0.50515 0.20780
 C2441 C 0.38205 0.49562 0.19167
 C2442 C 0.39027 0.49557 0.17198
 C2443 C 0.41781 0.50484 0.14810
 C2444 C 0.42590 0.50470 0.13161
 C2445 C 0.43619 0.50468 0.11224
 C2446 C 0.45591 0.51259 0.11078
 C2447 C 0.46619 0.51231 0.09215
 C2448 C 0.45687 0.50408 0.07466
 C2449 C 0.43695 0.49629 0.07627
 C2450 C 0.42670 0.49658 0.09495
 H2451 H 0.43352 0.52272 0.18114
 H2452 H 0.41921 0.52321 0.21542
 H2453 H 0.36773 0.48793 0.19424
 H2454 H 0.38216 0.48792 0.15980
 H2455 H 0.46340 0.51890 0.12408
 H2456 H 0.48147 0.51848 0.09149
 H2457 H 0.42929 0.48987 0.06314
 H2458 H 0.41143 0.49042 0.09592
 C2459 C -0.09144 0.00143 0.67077
 C2460 C -0.11056 0.01011 0.67377
 C2461 C -0.11891 0.01107 0.69339
 C2462 C -0.10816 0.00349 0.71024
 C2463 C -0.08909 -0.00544 0.70697
 C2464 C -0.08081 -0.00642 0.68741
 C2465 C -0.08238 0.00088 0.65080
 C2466 C -0.07416 0.00038 0.63438
 C2467 C -0.06377 -0.00021 0.61507
 C2468 C -0.07354 -0.00789 0.59774
 C2469 C -0.06330 -0.00852 0.57906
 C2470 C -0.04311 -0.00147 0.57747
 C2471 C -0.03344 0.00618 0.59503
 C2472 C -0.04370 0.00679 0.61367
 H2473 H -0.11892 0.01628 0.66099
 H2474 H -0.13351 0.01813 0.69536
 H2475 H -0.08059 -0.01186 0.71952
 H2476 H -0.06605 -0.01325 0.68528
 H2477 H -0.08906 -0.01339 0.59866
 H2478 H -0.07124 -0.01447 0.56588
 H2479 H -0.01794 0.01177 0.59440
 H2480 H -0.03598 0.01273 0.62700
 C2481 C -0.17587 0.91770 1.00347
 C2482 C -0.19347 0.92778 0.99739
 C2483 C -0.21225 0.91773 0.99799
 C2484 C -0.21370 0.89748 1.00498
 C2485 C -0.19576 0.88758 1.01098
 C2486 C -0.17708 0.89765 1.01039
 C2487 C -0.15635 0.92737 1.00167
 C2488 C -0.13967 0.93481 1.00013
 C2489 C -0.11948 0.94301 0.99843
 C2490 C -0.11623 0.96230 0.99002
 C2491 C -0.09654 0.97028 0.98869
 C2492 C -0.07987 0.95901 0.99579
 C2493 C -0.08334 0.93950 1.00397
 C2494 C -0.10302 0.93159 1.00527
 H2495 H -0.19260 0.94322 0.99168
 H2496 H -0.22532 0.92569 0.99221
 H2497 H -0.19610 0.87178 1.01559
 H2498 H -0.16349 0.88961 1.01484
 H2499 H -0.12890 0.97123 0.98463
 H2500 H -0.09443 0.98534 0.98234
 H2501 H -0.07090 0.93042 1.00959
 H2502 H -0.10541 0.91660 1.01175
 C2503 C 0.32335 0.42069 0.50663
 C2504 C 0.30553 0.42915 0.49892
 C2505 C 0.28718 0.41842 0.50033
 C2506 C 0.28632 0.39918 0.50983
 C2507 C 0.30449 0.39085 0.51738
 C2508 C 0.32277 0.40161 0.51597
 C2509 C 0.34251 0.43089 0.50394
 C2510 C 0.35892 0.43875 0.50172
 C2511 C 0.37886 0.44740 0.49933
 C2512 C 0.38143 0.46698 0.49135
 C2513 C 0.40091 0.47541 0.48959
 C2514 C 0.41803 0.46433 0.49583
 C2515 C 0.41522 0.44452 0.50351
 C2516 C 0.39578 0.43614 0.50523
 H2517 H 0.30592 0.44376 0.49130
 H2518 H 0.27393 0.42493 0.49322
 H2519 H 0.30477 0.37568 0.52375
 H2520 H 0.33657 0.39476 0.52164
 H2521 H 0.36840 0.47579 0.48670
 H2522 H 0.40250 0.49071 0.48366
 H2523 H 0.42802 0.43554 0.50845
 H2524 H 0.39392 0.42094 0.51138
 C2525 C 0.32469 0.58055 0.00341
 C2526 C 0.32406 0.60145 -0.00014
 C2527 C 0.30550 0.61143 -0.00069
 C2528 C 0.28709 0.60070 0.00211
 C2529 C 0.28793 0.57960 0.00586
 C2530 C 0.30662 0.56962 0.00641
 C2531 C 0.34401 0.57058 0.00407
 C2532 C 0.36055 0.56291 0.00443
 C2533 C 0.38057 0.55440 0.00454
 C2534 C 0.39704 0.56607 -0.00236
 C2535 C 0.41651 0.55783 -0.00270
 C2536 C 0.41977 0.53774 0.00385
 C2537 C 0.40311 0.52621 0.01100
 C2538 C 0.38365 0.53451 0.01132
 H2539 H 0.33797 0.61009 -0.00237
 H2540 H 0.30548 0.62771 -0.00320
 H2541 H 0.27443 0.57067 0.00874
 H2542 H 0.30699 0.55342 0.00934
 H2543 H 0.39481 0.58151 -0.00760
 H2544 H 0.42895 0.56715 -0.00828
 H2545 H 0.40506 0.51072 0.01618
 H2546 H 0.37099 0.52537 0.01672
 C2547 C -0.17458 0.08027 0.49743
 C2548 C -0.17444 0.10002 0.48970
 C2549 C -0.19244 0.11093 0.48838
 C2550 C -0.21125 0.10217 0.49431
 C2551 C -0.21097 0.08228 0.50260
 C2552 C -0.19283 0.07141 0.50391
 C2553 C -0.15572 0.06959 0.49924
 C2554 C -0.13946 0.06144 0.50048
 C2555 C -0.11964 0.05252 0.50157
 C2556 C -0.10271 0.06376 0.49512
 C2557 C -0.08339 0.05520 0.49574
 C2558 C -0.08073 0.03521 0.50285
 C2559 C -0.09786 0.02408 0.50950
 C2560 C -0.11719 0.03270 0.50884
 H2561 H -0.16032 0.10717 0.48499
 H2562 H -0.19156 0.12647 0.48297
 H2563 H -0.22451 0.07516 0.50870
 H2564 H -0.19299 0.05623 0.51034
 H2565 H -0.10445 0.07914 0.48948
 H2566 H -0.07059 0.06422 0.49051
 H2567 H -0.09639 0.00866 0.51506
 H2568 H -0.13021 0.02388 0.51389
 C2569 C 0.67312 0.09369 0.49595
 C2570 C 0.67659 0.11435 0.49228
 C2571 C 0.69638 0.12235 0.49270
 C2572 C 0.71329 0.10976 0.49658
 C2573 C 0.70924 0.08901 0.50089
 C2574 C 0.68948 0.08114 0.50047
 C2575 C 0.65289 0.08518 0.49504
 C2576 C 0.63619 0.07747 0.49434
 C2577 C 0.61651 0.06770 0.49371
 C2578 C 0.59937 0.07766 0.50120
 C2579 C 0.58049 0.06774 0.50151
 C2580 C 0.57847 0.04764 0.49436
 C2581 C 0.59575 0.03791 0.48650
 C2582 C 0.61460 0.04787 0.48620
 H2583 H 0.66400 0.12430 0.48889
 H2584 H 0.69798 0.13831 0.48940
 H2585 H 0.72113 0.07859 0.50505
 H2586 H 0.68699 0.06515 0.50368
 H2587 H 0.60064 0.09300 0.50707
 H2588 H 0.56755 0.07573 0.50766
 H2589 H 0.59481 0.02248 0.48085
 H2590 H 0.62775 0.03999 0.48038
 C2591 C 0.16962 0.58801 1.00092
 C2592 C 0.17330 0.60785 0.99412
 C2593 C 0.19283 0.61632 0.99540
 C2594 C 0.20910 0.60499 1.00330
 C2595 C 0.20498 0.58526 1.01078
 C2596 C 0.18546 0.57685 1.00950
 C2597 C 0.14974 0.57890 0.99883
 C2598 C 0.13325 0.57095 0.99708
 C2599 C 0.11369 0.56111 0.99516
 C2600 C 0.09614 0.57093 1.00183
 C2601 C 0.07731 0.56098 1.00092
 C2602 C 0.07575 0.54100 0.99335
 C2603 C 0.09345 0.53144 0.98627
 C2604 C 0.11226 0.54143 0.98720
 H2605 H 0.16113 0.61672 0.98759
 H2606 H 0.19505 0.63157 0.98975
 H2607 H 0.21678 0.57622 1.01766
 H2608 H 0.18276 0.56155 1.01506
 H2609 H 0.09705 0.58616 1.00802
 H2610 H 0.06404 0.56884 1.00650
 H2611 H 0.09286 0.51609 0.98036
 H2612 H 0.12574 0.53367 0.98199
 C2613 C 0.17018 0.40911 0.49977
 C2614 C 0.18687 0.42004 0.49230
 C2615 C 0.20634 0.41191 0.49359
 C2616 C 0.20949 0.39271 0.50254
 C2617 C 0.19249 0.38155 0.50939
 C2618 C 0.17299 0.38975 0.50812
 C2619 C 0.15037 0.41816 0.49945
 C2620 C 0.13403 0.42628 0.49936
 C2621 C 0.11478 0.43647 0.49943
 C2622 C 0.11337 0.45610 0.50745
 C2623 C 0.09476 0.46614 0.50756
 C2624 C 0.07723 0.45666 0.49963
 C2625 C 0.07882 0.43690 0.49158
 C2626 C 0.09747 0.42689 0.49149
 H2627 H 0.18487 0.43498 0.48566
 H2628 H 0.21891 0.42073 0.48753
 H2629 H 0.19418 0.36673 0.51620
 H2630 H 0.16015 0.38111 0.51391
 H2631 H 0.12668 0.46366 0.51363
 H2632 H 0.09412 0.48131 0.51390
 H2633 H 0.06566 0.42912 0.48538
 H2634 H 0.09839 0.41169 0.48524
 C2635 C 0.67012 0.91069 -0.00390
 C2636 C 0.67265 0.89094 0.00356
 C2637 C 0.69196 0.88224 0.00405
 C2638 C 0.70908 0.89327 -0.00270
 C2639 C 0.70619 0.91288 -0.01083
 C2640 C 0.68690 0.92152 -0.01134
 C2641 C 0.65050 0.92016 -0.00338
 C2642 C 0.63427 0.92849 -0.00275
 C2643 C 0.61507 0.93877 -0.00186
 C2644 C 0.59737 0.92906 -0.00866
 C2645 C 0.57875 0.93909 -0.00781
 C2646 C 0.57758 0.95903 -0.00012
 C2647 C 0.59550 0.96864 0.00671
 C2648 C 0.61409 0.95857 0.00583
 H2649 H 0.65974 0.88237 0.00928
 H2650 H 0.69340 0.86712 0.01021
 H2651 H 0.71883 0.92165 -0.01680
 H2652 H 0.68511 0.93676 -0.01732
 H2653 H 0.59795 0.91373 -0.01463
 H2654 H 0.56530 0.93120 -0.01318
 H2655 H 0.59520 0.98395 0.01272
 H2656 H 0.62771 0.96623 0.01114
 C2657 C 0.00654 0.82111 0.91755
 C2658 C -0.00004 0.80311 0.92685
 C2659 C 0.00103 0.78471 0.91630
 C2660 C 0.00907 0.78399 0.89638
 C2661 C 0.01554 0.80233 0.88723
 C2662 C 0.01448 0.82066 0.89781
 C2663 C 0.00404 0.84031 0.92758
 C2664 C 0.00190 0.85673 0.93530
 C2665 C -0.00043 0.87668 0.94378
 C2666 C -0.00806 0.87917 0.96352
 C2667 C -0.00971 0.89864 0.97183
 C2668 C -0.00370 0.91585 0.96047
 C2669 C 0.00359 0.91313 0.94049
 C2670 C 0.00520 0.89368 0.93224
 H2671 H -0.00658 0.80338 0.94201
 H2672 H -0.00520 0.77124 0.92348
 H2673 H 0.02067 0.80276 0.87157
 H2674 H 0.01925 0.83460 0.89034
 H2675 H -0.01251 0.86607 0.97254
 H2676 H -0.01535 0.90016 0.98726
 H2677 H 0.00835 0.92600 0.93131
 H2678 H 0.01107 0.89189 0.91692
 C2679 C 0.50618 0.32800 0.41754
 C2680 C 0.49910 0.31021 0.42689
 C2681 C 0.50045 0.29160 0.41673
 C2682 C 0.50927 0.29045 0.39717
 C2683 C 0.51622 0.30859 0.38796
 C2684 C 0.51487 0.32713 0.39814
 C2685 C 0.50352 0.34737 0.42724
 C2686 C 0.50125 0.36385 0.43481
 C2687 C 0.49872 0.38378 0.44332
 C2688 C 0.49086 0.38616 0.46298
 C2689 C 0.48899 0.40558 0.47135
 C2690 C 0.49500 0.42288 0.46014
 C2691 C 0.50253 0.42029 0.44023
 C2692 C 0.50437 0.40088 0.43191
 H2693 H 0.49199 0.31079 0.44177
 H2694 H 0.49381 0.27835 0.42396
 H2695 H 0.52208 0.30861 0.37254
 H2696 H 0.52008 0.34089 0.39062
 H2697 H 0.48640 0.37300 0.47191
 H2698 H 0.48316 0.40700 0.48672
 H2699 H 0.50730 0.43323 0.43115
 H2700 H 0.51042 0.39919 0.41665
 C2701 C 0.00040 0.32295 0.58128
 C2702 C 0.00509 0.30503 0.57093
 C2703 C 0.00454 0.28637 0.58120
 C2704 C -0.00096 0.28543 0.60197
 C2705 C -0.00544 0.30371 0.61215
 C2706 C -0.00488 0.32224 0.60188
 C2707 C 0.00139 0.34224 0.57109
 C2708 C 0.00210 0.35874 0.56320
 C2709 C 0.00274 0.37871 0.55441
 C2710 C 0.00954 0.38156 0.53442
 C2711 C 0.00990 0.40104 0.52590
 C2712 C 0.00343 0.41790 0.53733
 C2713 C -0.00322 0.41484 0.55750
 C2714 C -0.00356 0.39536 0.56595
 H2715 H 0.00944 0.30549 0.55501
 H2716 H 0.00891 0.27302 0.57281
 H2717 H -0.00918 0.30363 0.62823
 H2718 H -0.00837 0.33607 0.61008
 H2719 H 0.01448 0.36874 0.52539
 H2720 H 0.01512 0.40284 0.51034
 H2721 H -0.00831 0.42744 0.56672
 H2722 H -0.00883 0.39328 0.58147
 C2723 C 0.49751 0.82613 0.08280
 C2724 C 0.50176 0.80822 0.07225
 C2725 C 0.50080 0.78948 0.08231
 C2726 C 0.49532 0.78844 0.10308
 C2727 C 0.49129 0.80670 0.11348
 C2728 C 0.49225 0.82533 0.10340
 C2729 C 0.49904 0.84549 0.07281
 C2730 C 0.50024 0.86201 0.06501
 C2731 C 0.50149 0.88196 0.05624
 C2732 C 0.50864 0.88463 0.03635
 C2733 C 0.50950 0.90407 0.02780
 C2734 C 0.50318 0.92108 0.03908
 C2735 C 0.49621 0.91820 0.05917
 C2736 C 0.49537 0.89876 0.06767
 H2737 H 0.50613 0.80876 0.05633
 H2738 H 0.50494 0.77613 0.07380
 H2739 H 0.48765 0.80655 0.12958
 H2740 H 0.48913 0.83916 0.11176
 H2741 H 0.51344 0.87169 0.02741
 H2742 H 0.51495 0.90573 0.01230
 H2743 H 0.49123 0.93093 0.06830
 H2744 H 0.48984 0.89681 0.08311
 C2745 C 0.49583 0.67150 0.08941
 C2746 C 0.48888 0.67457 0.10930
 C2747 C 0.48979 0.69394 0.11802
 C2748 C 0.49745 0.71063 0.10688
 C2749 C 0.50508 0.70713 0.08711
 C2750 C 0.50418 0.68776 0.07845
 C2751 C 0.49422 0.65178 0.08007
 C2752 C 0.49294 0.63540 0.07194
 C2753 C 0.49171 0.61596 0.06197
 C2754 C 0.49851 0.59852 0.07198
 C2755 C 0.49837 0.57981 0.06193
 C2756 C 0.49145 0.57828 0.04166
 C2757 C 0.48420 0.59586 0.03189
 C2758 C 0.48437 0.61456 0.04199
 H2759 H 0.48254 0.66203 0.11800
 H2760 H 0.48406 0.69572 0.13331
 H2761 H 0.51180 0.71931 0.07824
 H2762 H 0.50987 0.68551 0.06312
 H2763 H 0.50422 0.59943 0.08745
 H2764 H 0.50401 0.56662 0.06995
 H2765 H 0.47878 0.59526 0.01632
 H2766 H 0.47908 0.62799 0.03410
 C2767 C 0.00176 0.16837 0.58993
 C2768 C 0.01036 0.18454 0.57903
 C2769 C 0.01099 0.20400 0.58750
 C2770 C 0.00280 0.20769 0.60701
 C2771 C -0.00501 0.19108 0.61817
 C2772 C -0.00564 0.17161 0.60963
 C2773 C 0.00010 0.14862 0.58065
 C2774 C -0.00139 0.13223 0.57256
 C2775 C -0.00309 0.11279 0.56266
 C2776 C -0.01081 0.11147 0.54282
 C2777 C -0.01185 0.09269 0.53290
 C2778 C -0.00513 0.07493 0.54273
 C2779 C 0.00233 0.07641 0.56281
 C2780 C 0.00334 0.09520 0.57267
 H2781 H 0.01638 0.18216 0.56385
 H2782 H 0.01786 0.21612 0.57866
 H2783 H -0.01114 0.19299 0.63328
 H2784 H -0.01219 0.15915 0.61829
 H2785 H -0.01583 0.12500 0.53492
 H2786 H -0.01765 0.09214 0.51747
 H2787 H 0.00762 0.06309 0.57086
 H2788 H 0.00933 0.09605 0.58803
 C2789 C 0.50270 0.17411 0.41132
 C2790 C 0.50935 0.17673 0.39122
 C2791 C 0.50948 0.19608 0.38232
 C2792 C 0.50316 0.21317 0.39347
 C2793 C 0.49587 0.21017 0.41347
 C2794 C 0.49572 0.19084 0.42232
 C2795 C 0.50334 0.15441 0.42090
 C2796 C 0.50393 0.13809 0.42929
 C2797 C 0.50455 0.11876 0.43961
 C2798 C 0.49692 0.10130 0.43008
 C2799 C 0.49706 0.08263 0.44030
 C2800 C 0.50483 0.08115 0.46026
 C2801 C 0.51266 0.09879 0.46962
 C2802 C 0.51250 0.11745 0.45936
 H2803 H 0.51467 0.16386 0.38250
 H2804 H 0.51496 0.19757 0.36690
 H2805 H 0.49021 0.22273 0.42239
 H2806 H 0.49033 0.18898 0.43782
 H2807 H 0.49073 0.10213 0.41480
 H2808 H 0.49093 0.06940 0.43258
 H2809 H 0.51878 0.09824 0.48493
 H2810 H 0.51845 0.13087 0.46689
 C2811 C 0.00399 0.66747 0.90972
 C2812 C 0.00916 0.67016 0.88918
 C2813 C 0.00939 0.68965 0.88058
 C2814 C 0.00464 0.70677 0.89246
 C2815 C -0.00093 0.70375 0.91301
 C2816 C -0.00118 0.68430 0.92154
 C2817 C 0.00402 0.64755 0.91885
 C2818 C 0.00398 0.63111 0.92702
 C2819 C 0.00382 0.61173 0.93725
 C2820 C -0.00411 0.59451 0.92752
 C2821 C -0.00468 0.57580 0.93768
 C2822 C 0.00266 0.57407 0.95778
 C2823 C 0.01073 0.59148 0.96737
 C2824 C 0.01128 0.61015 0.95717
 H2825 H 0.01310 0.65721 0.87985
 H2826 H 0.01357 0.69120 0.86474
 H2827 H -0.00536 0.71636 0.92254
 H2828 H -0.00540 0.68240 0.93740
 H2829 H -0.00994 0.59555 0.91211
 H2830 H -0.01095 0.56274 0.92979
 H2831 H 0.01655 0.59073 0.98279
 H2832 H 0.01743 0.62340 0.96486
 C2833 C 0.23886 0.67168 0.92797
 C2834 C 0.25762 0.67299 0.93790
 C2835 C 0.26052 0.66310 0.95650
 C2836 C 0.24468 0.65178 0.96546
 C2837 C 0.22561 0.65128 0.95591
 C2838 C 0.22272 0.66115 0.93720
 C2839 C 0.23690 0.67984 0.90768
 C2840 C 0.23620 0.68636 0.89049
 C2841 C 0.23630 0.69403 0.86991
 C2842 C 0.22684 0.71242 0.86529
 C2843 C 0.22809 0.72048 0.84559
 C2844 C 0.23889 0.71028 0.83019
 C2845 C 0.24800 0.69158 0.83491
 C2846 C 0.24672 0.68355 0.85463
 H2847 H 0.27023 0.68107 0.93091
 H2848 H 0.27537 0.66370 0.96358
 H2849 H 0.21334 0.64231 0.96222
 H2850 H 0.20817 0.65991 0.92958
 H2851 H 0.21878 0.72069 0.87700
 H2852 H 0.22084 0.73488 0.84254
 H2853 H 0.25642 0.68330 0.82347
 H2854 H 0.25416 0.66931 0.85805
 C2855 C 0.73927 0.17422 0.42235
 C2856 C 0.72374 0.17066 0.43654
 C2857 C 0.72791 0.16057 0.45496
 C2858 C 0.74765 0.15345 0.45923
 C2859 C 0.76322 0.15827 0.44514
 C2860 C 0.75904 0.16840 0.42699
 C2861 C 0.73536 0.18289 0.40254
 C2862 C 0.73368 0.18953 0.38544
 C2863 C 0.73330 0.19693 0.36472
 C2864 C 0.74286 0.18577 0.34936
 C2865 C 0.74433 0.19358 0.32956
 C2866 C 0.73628 0.21276 0.32480
 C2867 C 0.72618 0.22363 0.34025
 C2868 C 0.72477 0.21578 0.36006
 H2869 H 0.70832 0.17518 0.43315
 H2870 H 0.71534 0.15741 0.46504
 H2871 H 0.77888 0.15437 0.44803
 H2872 H 0.77129 0.17137 0.41633
 H2873 H 0.74961 0.17120 0.35279
 H2874 H 0.75216 0.18476 0.31811
 H2875 H 0.71977 0.23842 0.33716
 H2876 H 0.71742 0.22461 0.37183
 C2877 C 0.24745 0.32530 0.43314
 C2878 C 0.23005 0.33448 0.44113
 C2879 C 0.23100 0.34465 0.45987
 C2880 C 0.24943 0.34588 0.47057
 C2881 C 0.26651 0.33575 0.46290
 C2882 C 0.26551 0.32554 0.44431
 C2883 C 0.24752 0.31704 0.41284
 C2884 C 0.24853 0.31060 0.39568
 C2885 C 0.25050 0.30327 0.37513
 C2886 C 0.24351 0.31498 0.35880
 C2887 C 0.24573 0.30804 0.33879
 C2888 C 0.25502 0.28925 0.33485
 C2889 C 0.26222 0.27771 0.35141
 C2890 C 0.25997 0.28470 0.37139
 H2891 H 0.21599 0.33443 0.43255
 H2892 H 0.21770 0.35248 0.46541
 H2893 H 0.28084 0.33628 0.47100
 H2894 H 0.27905 0.31847 0.43830
 H2895 H 0.23630 0.32947 0.36152
 H2896 H 0.23997 0.31730 0.32646
 H2897 H 0.26940 0.26317 0.34897
 H2898 H 0.26558 0.27559 0.38392
 C2899 C 0.74749 0.82341 0.92833
 C2900 C 0.73005 0.83315 0.93552
 C2901 C 0.73064 0.84384 0.95399
 C2902 C 0.74877 0.84504 0.96519
 C2903 C 0.76587 0.83437 0.95834
 C2904 C 0.76522 0.82364 0.94003
 C2905 C 0.74801 0.81462 0.90827
 C2906 C 0.74935 0.80779 0.89128
 C2907 C 0.75152 0.80012 0.87087
 C2908 C 0.74461 0.81157 0.85433
 C2909 C 0.74675 0.80424 0.83447
 C2910 C 0.75586 0.78529 0.83086
 C2911 C 0.76311 0.77406 0.84760
 C2912 C 0.76094 0.78144 0.86746
 H2913 H 0.71625 0.83310 0.92653
 H2914 H 0.71734 0.85206 0.95891
 H2915 H 0.77995 0.83486 0.96685
 H2916 H 0.77879 0.81615 0.93465
 H2917 H 0.73744 0.82613 0.85680
 H2918 H 0.74096 0.81329 0.82200
 H2919 H 0.77015 0.75941 0.84541
 H2920 H 0.76650 0.77253 0.88016
 C2921 C 0.73292 0.81916 0.06970
 C2922 C 0.71727 0.83010 0.06040
 C2923 C 0.72135 0.84210 0.04318
 C2924 C 0.74115 0.84342 0.03535
 C2925 C 0.75652 0.83164 0.04422
 C2926 C 0.75241 0.81959 0.06126
 C2927 C 0.72992 0.80950 0.08918
 C2928 C 0.72876 0.80228 0.10604
 C2929 C 0.72888 0.79474 0.12665
 C2930 C 0.73524 0.80767 0.14234
 C2931 C 0.73730 0.80028 0.16217
 C2932 C 0.73303 0.77977 0.16666
 C2933 C 0.72612 0.76696 0.15089
 C2934 C 0.72414 0.77440 0.13097
 H2935 H 0.70217 0.83006 0.06694
 H2936 H 0.70937 0.85123 0.03683
 H2937 H 0.77188 0.83230 0.03835
 H2938 H 0.76467 0.81130 0.06839
 H2939 H 0.73903 0.82341 0.13915
 H2940 H 0.74251 0.81062 0.17393
 H2941 H 0.72271 0.75110 0.15382
 H2942 H 0.71933 0.76422 0.11890
 C2943 C 0.23512 0.31910 0.57543
 C2944 C 0.25486 0.32089 0.56777
 C2945 C 0.25879 0.33314 0.55083
 C2946 C 0.24301 0.34380 0.54127
 C2947 C 0.22304 0.34112 0.54835
 C2948 C 0.21913 0.32892 0.56546
 C2949 C 0.23200 0.30913 0.59474
 C2950 C 0.23071 0.30173 0.61153
 C2951 C 0.23064 0.29412 0.63212
 C2952 C 0.22581 0.27379 0.63642
 C2953 C 0.22751 0.26637 0.65639
 C2954 C 0.23425 0.27920 0.67223
 C2955 C 0.23861 0.29970 0.66774
 C2956 C 0.23682 0.30705 0.64787
 H2957 H 0.26737 0.31346 0.57539
 H2958 H 0.27429 0.33475 0.54552
 H2959 H 0.21068 0.34929 0.54143
 H2960 H 0.20380 0.32780 0.57138
 H2961 H 0.22111 0.26361 0.62431
 H2962 H 0.22402 0.25053 0.65933
 H2963 H 0.24367 0.31006 0.67953
 H2964 H 0.24067 0.32279 0.64472
 C2965 C 0.74644 0.17702 0.56590
 C2966 C 0.76578 0.17223 0.55884
 C2967 C 0.76817 0.16154 0.54069
 C2968 C 0.75120 0.15522 0.52905
 C2969 C 0.73175 0.16127 0.53567
 C2970 C 0.72942 0.17190 0.55409
 C2971 C 0.74455 0.18606 0.58586
 C2972 C 0.74429 0.19301 0.60290
 C2973 C 0.74506 0.20077 0.62347
 C2974 C 0.75648 0.21826 0.62789
 C2975 C 0.75814 0.22522 0.64800
 C2976 C 0.74844 0.21473 0.66405
 C2977 C 0.73701 0.19713 0.65942
 C2978 C 0.73538 0.19022 0.63931
 H2979 H 0.77911 0.17634 0.56765
 H2980 H 0.78351 0.15835 0.53585
 H2981 H 0.71818 0.15668 0.52756
 H2982 H 0.71432 0.17554 0.55942
 H2983 H 0.76422 0.22647 0.61581
 H2984 H 0.76701 0.23882 0.65093
 H2985 H 0.72929 0.18868 0.67133
 H2986 H 0.72666 0.17656 0.63613
 C2987 C 0.24377 0.67744 0.07297
 C2988 C 0.22671 0.66743 0.06483
 C2989 C 0.22844 0.65610 0.04681
 C2990 C 0.24730 0.65451 0.03698
 C2991 C 0.26404 0.66544 0.04472
 C2992 C 0.26227 0.67679 0.06257
 C2993 C 0.24303 0.68693 0.09275
 C2994 C 0.24337 0.69433 0.10959
 C2995 C 0.24446 0.70260 0.12991
 C2996 C 0.23533 0.69219 0.14615
 C2997 C 0.23689 0.69977 0.16600
 C2998 C 0.24766 0.71793 0.16996
 C2999 C 0.25688 0.72825 0.15351
 C3000 C 0.25530 0.72061 0.13365
 H3001 H 0.21231 0.66776 0.07280
 H3002 H 0.21538 0.64770 0.04122
 H3003 H 0.27870 0.66465 0.03729
 H3004 H 0.27556 0.68446 0.06866
 H3005 H 0.22704 0.67815 0.14349
 H3006 H 0.22957 0.69141 0.17822
 H3007 H 0.26524 0.74227 0.15595
 H3008 H 0.26257 0.72873 0.12123
 C3009 C 0.18346 0.56746 0.74311
 C3010 C 0.17256 0.55974 0.72643
 C3011 C 0.16103 0.54187 0.72853
 C3012 C 0.16015 0.53178 0.74740
 C3013 C 0.17212 0.53896 0.76364
 C3014 C 0.18369 0.55669 0.76149
 C3015 C 0.19248 0.58746 0.74235
 C3016 C 0.19931 0.60451 0.74272
 C3017 C 0.20678 0.62510 0.74404
 C3018 C 0.19620 0.64083 0.73452
 C3019 C 0.20281 0.66097 0.73664
 C3020 C 0.22012 0.66568 0.74838
 C3021 C 0.23065 0.64971 0.75789
 C3022 C 0.22400 0.62959 0.75575
 H3023 H 0.17218 0.56803 0.71216
 H3024 H 0.15175 0.53675 0.71588
 H3025 H 0.17176 0.53137 0.77830
 H3026 H 0.19203 0.56252 0.77450
 H3027 H 0.18274 0.63756 0.72558
 H3028 H 0.19433 0.67282 0.72907
 H3029 H 0.24403 0.65274 0.76702
 H3030 H 0.23220 0.61755 0.76335
 C3031 C 0.67820 0.06945 0.24619
 C3032 C 0.67343 0.06222 0.26561
 C3033 C 0.66233 0.04427 0.26794
 C3034 C 0.65559 0.03306 0.25084
 C3035 C 0.66157 0.03988 0.23129
 C3036 C 0.67262 0.05808 0.22902
 C3037 C 0.68756 0.08921 0.24431
 C3038 C 0.69473 0.10613 0.24391
 C3039 C 0.70264 0.12659 0.24440
 C3040 C 0.69211 0.14224 0.23469
 C3041 C 0.69920 0.16228 0.23594
 C3042 C 0.71696 0.16699 0.24699
 C3043 C 0.72740 0.15114 0.25677
 C3044 C 0.72026 0.13109 0.25549
 H3045 H 0.67789 0.07075 0.27903
 H3046 H 0.65918 0.03925 0.28334
 H3047 H 0.65666 0.03212 0.21762
 H3048 H 0.67622 0.06359 0.21386
 H3049 H 0.67834 0.13896 0.22623
 H3050 H 0.69078 0.17405 0.22817
 H3051 H 0.74113 0.15417 0.26536
 H3052 H 0.72843 0.11913 0.26324
 C3053 C 0.81575 0.06835 0.73587
 C3054 C 0.82108 0.05475 0.72042
 C3055 C 0.83325 0.03788 0.72487
 C3056 C 0.84082 0.03474 0.74480
 C3057 C 0.83400 0.04792 0.76033
 C3058 C 0.82175 0.06449 0.75588
 C3059 C 0.80582 0.08731 0.73151
 C3060 C 0.79866 0.10402 0.72947
 C3061 C 0.79150 0.12466 0.72881
 C3062 C 0.77112 0.12904 0.72477
 C3063 C 0.76413 0.14906 0.72637
 C3064 C 0.77745 0.16487 0.73224
 C3065 C 0.79800 0.16031 0.73570
 C3066 C 0.80492 0.14040 0.73399
 H3067 H 0.81645 0.05755 0.70482
 H3068 H 0.83755 0.02826 0.71234
 H3069 H 0.83808 0.04562 0.77613
 H3070 H 0.81748 0.07472 0.76806
 H3071 H 0.76054 0.11697 0.72089
 H3072 H 0.74823 0.15205 0.72361
 H3073 H 0.80872 0.17208 0.74007
 H3074 H 0.82071 0.13719 0.73725
 C3075 C 0.32212 0.57741 0.23185
 C3076 C 0.31414 0.55771 0.22966
 C3077 C 0.32651 0.54081 0.23328
 C3078 C 0.34679 0.54358 0.23941
 C3079 C 0.35479 0.56338 0.24078
 C3080 C 0.34255 0.58013 0.23701
 C3081 C 0.30952 0.59514 0.23053
 C3082 C 0.30059 0.61107 0.23073
 C3083 C 0.29204 0.63106 0.23243
 C3084 C 0.27178 0.63500 0.22738
 C3085 C 0.26388 0.65456 0.23008
 C3086 C 0.27617 0.67030 0.23800
 C3087 C 0.29655 0.66610 0.24278
 C3088 C 0.30435 0.64670 0.24001
 H3089 H 0.29831 0.55544 0.22575
 H3090 H 0.32003 0.52567 0.23219
 H3091 H 0.37046 0.56591 0.24513
 H3092 H 0.34890 0.59527 0.23873
 H3093 H 0.26208 0.62297 0.22154
 H3094 H 0.24815 0.65729 0.22623
 H3095 H 0.30655 0.67781 0.24874
 H3096 H 0.32004 0.64384 0.24399
 C3097 C 0.32219 0.43462 0.24580
 C3098 C 0.33310 0.44139 0.22871
 C3099 C 0.34331 0.46014 0.22923
 C3100 C 0.34284 0.47212 0.24690
 C3101 C 0.33088 0.46574 0.26351
 C3102 C 0.32063 0.44711 0.26295
 C3103 C 0.31431 0.41418 0.24674
 C3104 C 0.30825 0.39691 0.24838
 C3105 C 0.30135 0.37626 0.25095
 C3106 C 0.31269 0.36021 0.24301
 C3107 C 0.30601 0.34013 0.24557
 C3108 C 0.28786 0.33583 0.25614
 C3109 C 0.27678 0.35210 0.26437
 C3110 C 0.28350 0.37214 0.26179
 H3111 H 0.33449 0.43179 0.21539
 H3112 H 0.35268 0.46456 0.21642
 H3113 H 0.33028 0.47476 0.27730
 H3114 H 0.31226 0.44204 0.27627
 H3115 H 0.32662 0.36322 0.23473
 H3116 H 0.31490 0.32804 0.23897
 H3117 H 0.26273 0.34940 0.27255
 H3118 H 0.27469 0.38444 0.26815
 C3119 C 0.82902 0.92673 0.74503
 C3120 C 0.81863 0.94484 0.74100
 C3121 C 0.82900 0.96355 0.74176
 C3122 C 0.84971 0.96418 0.74684
 C3123 C 0.86011 0.94587 0.74994
 C3124 C 0.84984 0.92732 0.74904
 C3125 C 0.81857 0.90746 0.74625
 C3126 C 0.81101 0.89078 0.74793
 C3127 C 0.80314 0.87043 0.75025
 C3128 C 0.78419 0.86693 0.75930
 C3129 C 0.77677 0.84705 0.76154
 C3130 C 0.78825 0.83040 0.75474
 C3131 C 0.80746 0.83412 0.74603
 C3132 C 0.81482 0.85397 0.74382
 H3133 H 0.80249 0.94454 0.73784
 H3134 H 0.82072 0.97750 0.73938
 H3135 H 0.87615 0.94597 0.75359
 H3136 H 0.85806 0.91344 0.75207
 H3137 H 0.77510 0.87955 0.76449
 H3138 H 0.76190 0.84478 0.76823
 H3139 H 0.81671 0.82173 0.74059
 H3140 H 0.82959 0.85649 0.73696
 C3141 C 0.67257 0.92533 0.23757
 C3142 C 0.67477 0.93456 0.25664
 C3143 C 0.66535 0.95306 0.26062
 C3144 C 0.65366 0.96260 0.24552
 C3145 C 0.65227 0.95376 0.22610
 C3146 C 0.66166 0.93515 0.22215
 C3147 C 0.68011 0.90507 0.23465
 C3148 C 0.68613 0.88787 0.23329
 C3149 C 0.69325 0.86725 0.23282
 C3150 C 0.68285 0.85212 0.24373
 C3151 C 0.69065 0.83245 0.24488
 C3152 C 0.70904 0.82766 0.23515
 C3153 C 0.71905 0.84287 0.22369
 C3154 C 0.71121 0.86252 0.22258
 H3155 H 0.68312 0.92709 0.26871
 H3156 H 0.66654 0.95958 0.27573
 H3157 H 0.64292 0.96051 0.21444
 H3158 H 0.65971 0.92805 0.20738
 H3159 H 0.66895 0.85565 0.25178
 H3160 H 0.68254 0.82116 0.25381
 H3161 H 0.73320 0.83974 0.21594
 H3162 H 0.71941 0.87412 0.21414
 C3163 C 0.16574 0.42282 0.73482
 C3164 C 0.14527 0.42335 0.74036
 C3165 C 0.13589 0.44189 0.74405
 C3166 C 0.14688 0.46021 0.74227
 C3167 C 0.16717 0.45971 0.73574
 C3168 C 0.17663 0.44103 0.73217
 C3169 C 0.17561 0.40345 0.73357
 C3170 C 0.18314 0.38682 0.73365
 C3171 C 0.19149 0.36672 0.73491
 C3172 C 0.18103 0.35160 0.74577
 C3173 C 0.18950 0.33235 0.74820
 C3174 C 0.20861 0.32795 0.73979
 C3175 C 0.21883 0.34317 0.72853
 C3176 C 0.21032 0.36243 0.72615
 H3177 H 0.13668 0.40938 0.74241
 H3178 H 0.12011 0.44189 0.74866
 H3179 H 0.17591 0.47365 0.73429
 H3180 H 0.19253 0.44077 0.72796
 H3181 H 0.16645 0.35480 0.75266
 H3182 H 0.18120 0.32104 0.75692
 H3183 H 0.23355 0.34033 0.72182
 H3184 H 0.21856 0.37404 0.71775
 C3185 C 0.06936 0.73374 0.81443
 C3186 C 0.05940 0.75241 0.81347
 C3187 C 0.04231 0.75585 0.82553
 C3188 C 0.03492 0.74063 0.83870
 C3189 C 0.04417 0.72149 0.83864
 C3190 C 0.06140 0.71809 0.82663
 C3191 C 0.08911 0.73186 0.80519
 C3192 C 0.10616 0.73147 0.79848
 C3193 C 0.12694 0.73226 0.79165
 C3194 C 0.14176 0.74044 0.80460
 C3195 C 0.16184 0.74238 0.79803
 C3196 C 0.16749 0.73615 0.77832
 C3197 C 0.15254 0.72766 0.76546
 C3198 C 0.13238 0.72578 0.77208
 H3199 H 0.06548 0.76470 0.80423
 H3200 H 0.03543 0.77075 0.82535
 H3201 H 0.03906 0.70970 0.84895
 H3202 H 0.06912 0.70365 0.82769
 H3203 H 0.13773 0.74558 0.81975
 H3204 H 0.17289 0.74891 0.80840
 H3205 H 0.15635 0.72271 0.75020
 H3206 H 0.12102 0.71949 0.76189
 C3207 C 0.57294 0.23790 0.31717
 C3208 C 0.56533 0.25764 0.31842
 C3209 C 0.54869 0.26175 0.33086
 C3210 C 0.53938 0.24616 0.34228
 C3211 C 0.54641 0.22618 0.34016
 C3212 C 0.56321 0.22208 0.32775
 C3213 C 0.59199 0.23465 0.30694
 C3214 C 0.60857 0.23316 0.29930
 C3215 C 0.62897 0.23281 0.29138
 C3216 C 0.64499 0.23866 0.30412
 C3217 C 0.66469 0.24022 0.29646
 C3218 C 0.66876 0.23595 0.27584
 C3219 C 0.65265 0.22950 0.26322
 C3220 C 0.63284 0.22803 0.27095
 H3221 H 0.57277 0.27003 0.31039
 H3222 H 0.54343 0.27726 0.33203
 H3223 H 0.53971 0.21396 0.34892
 H3224 H 0.56908 0.20677 0.32707
 H3225 H 0.64218 0.24245 0.31994
 H3226 H 0.67670 0.24506 0.30668
 H3227 H 0.65526 0.22611 0.24729
 H3228 H 0.62053 0.22359 0.26092
 C3229 C 0.56736 0.74443 0.17827
 C3230 C 0.55694 0.76285 0.17829
 C3231 C 0.53887 0.76476 0.16741
 C3232 C 0.53095 0.74823 0.15632
 C3233 C 0.54080 0.72941 0.15728
 C3234 C 0.55904 0.72755 0.16813
 C3235 C 0.58734 0.74367 0.18710
 C3236 C 0.60434 0.74405 0.19394
 C3237 C 0.62480 0.74531 0.20159
 C3238 C 0.62905 0.75632 0.21935
 C3239 C 0.64903 0.75813 0.22638
 C3240 C 0.66508 0.74897 0.21570
 C3241 C 0.66062 0.73803 0.19778
 C3242 C 0.64064 0.73624 0.19079
 H3243 H 0.56320 0.77600 0.18608
 H3244 H 0.53142 0.77937 0.16708
 H3245 H 0.53506 0.71653 0.14873
 H3246 H 0.56703 0.71323 0.16795
 H3247 H 0.61692 0.76355 0.22773
 H3248 H 0.65187 0.76662 0.24023
 H3249 H 0.67255 0.73075 0.18917
 H3250 H 0.63755 0.72783 0.17693
 C3251 C 0.06920 0.24442 0.68074
 C3252 C 0.05842 0.26261 0.67989
 C3253 C 0.04077 0.26388 0.66823
 C3254 C 0.03365 0.24696 0.65720
 C3255 C 0.04384 0.22838 0.65903
 C3256 C 0.06165 0.22715 0.67066
 C3257 C 0.08886 0.24427 0.69032
 C3258 C 0.10563 0.24501 0.69768
 C3259 C 0.12592 0.24649 0.70575
 C3260 C 0.12970 0.25718 0.72382
 C3261 C 0.14953 0.25906 0.73129
 C3262 C 0.16588 0.25028 0.72073
 C3263 C 0.16188 0.23971 0.70248
 C3264 C 0.14206 0.23785 0.69508
 H3265 H 0.06409 0.27606 0.68761
 H3266 H 0.03304 0.27832 0.66725
 H3267 H 0.03872 0.21519 0.65055
 H3268 H 0.06993 0.21301 0.67114
 H3269 H 0.11732 0.26407 0.73213
 H3270 H 0.15202 0.26726 0.74538
 H3271 H 0.17403 0.23273 0.69395
 H3272 H 0.13934 0.22969 0.68099
 C3273 C 0.92521 0.23380 0.67166
 C3274 C 0.93494 0.21820 0.66106
 C3275 C 0.95367 0.22191 0.65159
 C3276 C 0.96270 0.24128 0.65257
 C3277 C 0.95322 0.25658 0.66396
 C3278 C 0.93461 0.25285 0.67346
 C3279 C 0.90489 0.23107 0.67929
 C3280 C 0.88765 0.22987 0.68536
 C3281 C 0.86700 0.22960 0.69250
 C3282 C 0.86192 0.21949 0.71058
 C3283 C 0.84226 0.22083 0.71845
 C3284 C 0.82740 0.23243 0.70837
 C3285 C 0.83252 0.24202 0.68986
 C3286 C 0.85220 0.24063 0.68202
 H3287 H 0.92771 0.20344 0.65943
 H3288 H 0.96039 0.21008 0.64250
 H3289 H 0.95991 0.27165 0.66489
 H3290 H 0.92720 0.26505 0.68158
 H3291 H 0.87327 0.21095 0.71884
 H3292 H 0.83886 0.21318 0.73269
 H3293 H 0.82150 0.25104 0.68169
 H3294 H 0.85600 0.24858 0.66804
 C3295 C 0.42269 0.73740 0.17464
 C3296 C 0.43246 0.75628 0.17630
 C3297 C 0.45082 0.75979 0.16624
 C3298 C 0.45968 0.74443 0.15442
 C3299 C 0.45032 0.72521 0.15359
 C3300 C 0.43184 0.72172 0.16362
 C3301 C 0.40253 0.73498 0.18276
 C3302 C 0.38541 0.73406 0.18920
 C3303 C 0.36489 0.73416 0.19669
 C3304 C 0.34995 0.74476 0.18597
 C3305 C 0.33038 0.74647 0.19401
 C3306 C 0.32551 0.73763 0.21295
 C3307 C 0.34052 0.72650 0.22333
 C3308 C 0.36007 0.72483 0.21525
 H3309 H 0.42551 0.76854 0.18473
 H3310 H 0.45778 0.77474 0.16707
 H3311 H 0.45656 0.71333 0.14421
 H3312 H 0.42432 0.70710 0.16209
 H3313 H 0.35355 0.75211 0.17161
 H3314 H 0.31924 0.75512 0.18560
 H3315 H 0.33731 0.71945 0.23792
 H3316 H 0.37154 0.71665 0.22371
 C3317 C 0.43164 0.24982 0.32535
 C3318 C 0.44306 0.26781 0.32492
 C3319 C 0.46166 0.26891 0.33500
 C3320 C 0.46913 0.25202 0.34570
 C3321 C 0.45818 0.23362 0.34516
 C3322 C 0.43941 0.23257 0.33511
 C3323 C 0.41138 0.24986 0.31712
 C3324 C 0.39429 0.25090 0.31063
 C3325 C 0.37384 0.25291 0.30318
 C3326 C 0.37019 0.26283 0.28467
 C3327 C 0.35033 0.26507 0.27754
 C3328 C 0.33378 0.25742 0.28887
 C3329 C 0.33762 0.24770 0.30762
 C3330 C 0.35751 0.24549 0.31470
 H3331 H 0.43724 0.28123 0.31739
 H3332 H 0.46995 0.28320 0.33500
 H3333 H 0.46358 0.22046 0.35341
 H3334 H 0.43066 0.21857 0.33557
 H3335 H 0.38272 0.26878 0.27570
 H3336 H 0.34797 0.27256 0.26303
 H3337 H 0.32530 0.24157 0.31672
 H3338 H 0.36014 0.23793 0.32913
 C3339 C 0.92656 0.74334 0.83002
 C3340 C 0.92723 0.74798 0.85079
 C3341 C 0.94571 0.74826 0.86111
 C3342 C 0.96387 0.74391 0.85080
 C3343 C 0.96308 0.73826 0.83017
 C3344 C 0.94446 0.73809 0.81977
 C3345 C 0.90749 0.74504 0.81945
 C3346 C 0.89104 0.74709 0.81167
 C3347 C 0.87097 0.74980 0.80344
 C3348 C 0.85407 0.74407 0.81507
 C3349 C 0.83450 0.74644 0.80727
 C3350 C 0.83151 0.75461 0.78766
 C3351 C 0.84861 0.76077 0.77624
 C3352 C 0.86821 0.75837 0.78410
 H3353 H 0.91349 0.75193 0.85892
 H3354 H 0.94589 0.75238 0.87709
 H3355 H 0.97691 0.73495 0.82193
 H3356 H 0.94410 0.73444 0.80367
 H3357 H 0.85602 0.73758 0.83013
 H3358 H 0.82174 0.74151 0.81650
 H3359 H 0.84690 0.76704 0.76107
 H3360 H 0.88119 0.76300 0.77503
   
