data_POSCAR
  _audit_creation_date              2014-09-24
  _audit_creation_method            'ToBaCCo'
  _symmetry_space_group_name_H-M    'P1'
  _symmetry_Int_Tables_number       1
  _symmetry_cell_setting            triclinic
  loop_
  _symmetry_equiv_pos_as_xyz
 x,y,z
_cell_length_a 67.0106
_cell_length_b 66.9203
_cell_length_c 38.0526
_cell_angle_alpha 89.957600
_cell_angle_beta 89.978800
_cell_angle_gamma 90.073800
loop_
  _atom_site_label
  _atom_site_type_symbol
  _atom_site_fract_x
  _atom_site_fract_y
  _atom_site_fract_z
C1 C 0.00089 0.26469 0.00036
 C2 C 0.00052 0.26469 0.03606
 C3 C -0.01849 0.26259 0.05539
 C4 C 0.01918 0.26527 0.05703
 C5 C 0.01993 0.26292 -0.01912
 C6 C -0.01772 0.26493 -0.02069
 C7 C -0.02747 0.27923 0.07080
 C8 C -0.04583 0.27737 0.08796
 C9 C -0.05543 0.25854 0.09128
 C10 C -0.04570 0.24180 0.07616
 C11 C -0.02768 0.24391 0.05810
 C12 C 0.03298 0.28085 0.05255
 C13 C 0.05114 0.28062 0.07056
 C14 C 0.05577 0.26486 0.09360
 C15 C 0.04164 0.24960 0.09885
 C16 C 0.02349 0.24984 0.08080
 C17 C 0.03118 0.24531 -0.01696
 C18 C 0.04917 0.24363 -0.03526
 C19 C 0.05628 0.25966 -0.05558
 C20 C 0.04503 0.27732 -0.05758
 C21 C 0.02683 0.27884 -0.03980
 C22 C -0.02186 0.24921 -0.04392
 C23 C -0.03945 0.24920 -0.06362
 C24 C -0.05318 0.26498 -0.06062
 C25 C -0.04887 0.28083 -0.03757
 C26 C -0.03125 0.28084 -0.01792
 H27 H -0.02035 0.29375 0.06920
 H28 H -0.05172 0.29069 0.10018
 H29 H -0.05239 0.22710 0.07605
 H30 H -0.02091 0.23093 0.04599
 H31 H 0.02976 0.29308 0.03479
 H32 H 0.06156 0.29278 0.06647
 H33 H 0.01307 0.23764 0.08459
 H34 H 0.02597 0.23287 -0.00119
 H35 H 0.05765 0.22991 -0.03329
 H36 H 0.05020 0.28978 -0.07332
 H37 H 0.01825 0.29250 -0.04173
 H38 H -0.01159 0.23681 -0.04643
 H39 H -0.04244 0.23667 -0.08084
 H40 H -0.05897 0.29336 -0.03515
 H41 H -0.02808 0.29333 -0.00073
 H42 H 0.04484 0.23716 0.11614
 C43 C 0.49967 0.75738 0.46653
 C44 C 0.49925 0.75768 0.50234
 C45 C 0.48031 0.75931 0.52242
 C46 C 0.51781 0.75584 0.52326
 C47 C 0.51888 0.75851 0.44712
 C48 C 0.48108 0.75618 0.44528
 C49 C 0.46686 0.77497 0.51602
 C50 C 0.44880 0.77594 0.53434
 C51 C 0.44394 0.76137 0.55961
 C52 C 0.45766 0.74596 0.56642
 C53 C 0.47570 0.74501 0.54813
 C54 C 0.52348 0.77124 0.54616
 C55 C 0.54090 0.76955 0.56608
 C56 C 0.55266 0.75223 0.56399
 C57 C 0.54680 0.73670 0.54141
 C58 C 0.52956 0.73855 0.52103
 C59 C 0.52401 0.74359 0.42290
 C60 C 0.54235 0.74429 0.40540
 C61 C 0.55582 0.76005 0.41162
 C62 C 0.55035 0.77525 0.43522
 C63 C 0.53204 0.77451 0.45271
 C64 C 0.46649 0.74163 0.45249
 C65 C 0.44853 0.74144 0.43389
 C66 C 0.44505 0.75543 0.40707
 C67 C 0.46000 0.76939 0.39875
 C68 C 0.47785 0.76978 0.41775
 H69 H 0.47032 0.78636 0.49673
 H70 H 0.43869 0.78816 0.52890
 H71 H 0.45427 0.73436 0.58536
 H72 H 0.48588 0.73282 0.55347
 H73 H 0.51450 0.78463 0.54830
 H74 H 0.54507 0.78164 0.58353
 H75 H 0.52526 0.72645 0.50371
 H76 H 0.51398 0.73118 0.41814
 H77 H 0.54619 0.73226 0.38765
 H78 H 0.56019 0.78779 0.44005
 H79 H 0.52815 0.78641 0.47073
 H80 H 0.46889 0.73060 0.47287
 H81 H 0.43736 0.73032 0.44035
 H82 H 0.45764 0.78034 0.37821
 H83 H 0.48895 0.78101 0.41154
 H84 H 0.55570 0.72326 0.53928
 C85 C 0.99980 0.73045 -0.03495
 C86 C 1.00006 0.72976 0.00093
 C87 C 1.01894 0.73193 0.02113
 C88 C 0.98133 0.72724 0.02137
 C89 C 0.98074 0.73202 -0.05483
 C90 C 1.01854 0.73008 -0.05586
 C91 C 1.02395 0.71790 0.04708
 C92 C 1.04225 0.71916 0.06458
 C93 C 1.05586 0.73445 0.05633
 C94 C 1.05053 0.74888 0.03123
 C95 C 1.03214 0.74778 0.01414
 C96 C 0.96838 0.71122 0.01440
 C97 C 0.94972 0.71023 0.03065
 C98 C 0.94373 0.72515 0.05440
 C99 C 0.95717 0.74062 0.06264
 C100 C 0.97585 0.74159 0.04638
 C101 C 0.96663 0.74677 -0.04636
 C102 C 0.94842 0.74762 -0.06409
 C103 C 0.94422 0.73411 -0.09130
 C104 C 0.95862 0.71984 -0.10069
 C105 C 0.97672 0.71879 -0.08254
 C106 C 1.02213 0.74488 -0.08110
 C107 C 1.04022 0.74547 -0.09930
 C108 C 1.05534 0.73121 -0.09272
 C109 C 1.05117 0.71592 -0.06811
 C110 C 1.03298 0.71530 -0.05021
 H111 H 1.01392 0.70565 0.05309
 H112 H 1.04603 0.70786 0.08385
 H113 H 1.06061 0.76103 0.02491
 H114 H 1.02833 0.75912 -0.00504
 H115 H 0.97251 0.69981 -0.00441
 H116 H 0.93987 0.69791 0.02431
 H117 H 0.98566 0.75404 0.05212
 H118 H 0.96966 0.75755 -0.02582
 H119 H 0.93769 0.75898 -0.05683
 H120 H 0.95569 0.70927 -0.12159
 H121 H 0.98746 0.70742 -0.08970
 H122 H 1.01116 0.75644 -0.08587
 H123 H 1.04258 0.75790 -0.11698
 H124 H 1.06162 0.70395 -0.06315
 H125 H 1.03025 0.70336 -0.03157
 H126 H 0.95295 0.75242 0.08059
 C127 C 0.50085 0.23342 0.49590
 C128 C 0.50091 0.23647 0.53131
 C129 C 0.51975 0.23885 0.55157
 C130 C 0.48201 0.23774 0.55160
 C131 C 0.48201 0.23362 0.47555
 C132 C 0.51959 0.23069 0.47568
 C133 C 0.52292 0.22730 0.58184
 C134 C 0.54049 0.22937 0.60122
 C135 C 0.55526 0.24302 0.59063
 C136 C 0.55201 0.25475 0.56055
 C137 C 0.53430 0.25288 0.54145
 C138 C 0.46802 0.22211 0.55079
 C139 C 0.45040 0.22339 0.57032
 C140 C 0.44654 0.24024 0.59129
 C141 C 0.46068 0.25578 0.59225
 C142 C 0.47827 0.25450 0.57268
 C143 C 0.47033 0.25098 0.47389
 C144 C 0.45249 0.25106 0.45488
 C145 C 0.44597 0.23370 0.43757
 C146 C 0.45775 0.21637 0.43914
 C147 C 0.47575 0.21640 0.45767
 C148 C 0.52399 0.24364 0.44774
 C149 C 0.54228 0.24237 0.43032
 C150 C 0.55647 0.22797 0.44026
 C151 C 0.55171 0.21451 0.46742
 C152 C 0.53339 0.21581 0.48487
 H153 H 0.51184 0.21651 0.59027
 H154 H 0.54269 0.22009 0.62422
 H155 H 0.56304 0.26560 0.55218
 H156 H 0.53193 0.26238 0.51880
 H157 H 0.47085 0.20884 0.53530
 H158 H 0.43996 0.21104 0.56951
 H159 H 0.48891 0.26668 0.57372
 H160 H 0.47505 0.26444 0.48734
 H161 H 0.44361 0.26456 0.45413
 H162 H 0.45309 0.20288 0.42574
 H163 H 0.48467 0.20292 0.45859
 H164 H 0.51354 0.25522 0.44027
 H165 H 0.54556 0.25312 0.40984
 H166 H 0.56218 0.20304 0.47527
 H167 H 0.53011 0.20546 0.50600
 H168 H 0.45803 0.26905 0.60783
 C169 C 0.73953 0.00338 -0.02785
 C170 C 0.73952 0.00310 0.00798
 C171 C 0.74073 -0.01578 0.02868
 C172 C 0.73830 0.02211 0.02791
 C173 C 0.74174 0.02248 -0.04717
 C174 C 0.73798 -0.01503 -0.04942
 C175 C 0.72818 -0.01867 0.05775
 C176 C 0.72889 -0.03643 0.07706
 C177 C 0.74202 -0.05202 0.06751
 C178 C 0.75495 -0.04871 0.03873
 C179 C 0.75455 -0.03073 0.02009
 C180 C 0.72177 0.03473 0.02372
 C181 C 0.72119 0.05325 0.04049
 C182 C 0.73708 0.05944 0.06202
 C183 C 0.75331 0.04644 0.06715
 C184 C 0.75388 0.02789 0.05028
 C185 C 0.75995 0.03273 -0.04665
 C186 C 0.76206 0.05084 -0.06451
 C187 C 0.74580 0.05941 -0.08275
 C188 C 0.72751 0.04885 -0.08295
 C189 C 0.72563 0.03047 -0.06581
 C190 C 0.75185 -0.01852 -0.07623
 C191 C 0.75099 -0.03600 -0.09613
 C192 C 0.73612 -0.05059 -0.08990
 C193 C 0.72189 -0.04661 -0.06332
 C194 C 0.72276 -0.02902 -0.04358
 H195 H 0.71747 -0.00732 0.06511
 H196 H 0.71830 -0.03821 0.09829
 H197 H 0.76602 -0.05967 0.03123
 H198 H 0.76507 -0.02853 -0.00117
 H199 H 0.70943 0.03031 0.00706
 H200 H 0.70831 0.06276 0.03660
 H201 H 0.76671 0.01828 0.05384
 H202 H 0.77251 0.02671 -0.03223
 H203 H 0.77624 0.05849 -0.06245
 H204 H 0.71475 0.05430 -0.09747
 H205 H 0.71152 0.02258 -0.06663
 H206 H 0.76377 -0.00794 -0.08115
 H207 H 0.76276 -0.03832 -0.11512
 H208 H 0.70956 -0.05664 -0.05827
 H209 H 0.71154 -0.02634 -0.02365
 H210 H 0.76582 0.05086 0.08340
 C211 C 0.22435 0.49838 0.48482
 C212 C 0.22448 0.49870 0.52056
 C213 C 0.22551 0.47999 0.54120
 C214 C 0.22460 0.51775 0.54047
 C215 C 0.22496 0.51712 0.46423
 C216 C 0.22446 0.47936 0.46483
 C217 C 0.20909 0.47396 0.56143
 C218 C 0.20945 0.45570 0.57923
 C219 C 0.22642 0.44344 0.57765
 C220 C 0.24307 0.44980 0.55815
 C221 C 0.24257 0.46790 0.53988
 C222 C 0.20916 0.53173 0.53656
 C223 C 0.21017 0.55020 0.55362
 C224 C 0.22657 0.55497 0.57511
 C225 C 0.24173 0.54068 0.57969
 C226 C 0.24070 0.52223 0.56263
 C227 C 0.24196 0.52936 0.46483
 C228 C 0.24197 0.54765 0.44712
 C229 C 0.22487 0.55404 0.42898
 C230 C 0.20799 0.54159 0.42795
 C231 C 0.20813 0.52314 0.44515
 C232 C 0.24023 0.47524 0.44175
 C233 C 0.24120 0.45690 0.42435
 C234 C 0.22631 0.44235 0.42949
 C235 C 0.21022 0.44675 0.45195
 C236 C 0.20927 0.46512 0.46936
 H237 H 0.19583 0.48318 0.56268
 H238 H 0.19652 0.45116 0.59435
 H239 H 0.25628 0.44053 0.55647
 H240 H 0.25539 0.47243 0.52442
 H241 H 0.19644 0.52840 0.52001
 H242 H 0.19809 0.56074 0.55004
 H243 H 0.25278 0.51165 0.56591
 H244 H 0.25508 0.52484 0.47943
 H245 H 0.25510 0.55707 0.44838
 H246 H 0.19472 0.54618 0.41389
 H247 H 0.19491 0.51381 0.44449
 H248 H 0.25210 0.48603 0.43797
 H249 H 0.25391 0.45390 0.40760
 H250 H 0.19834 0.43601 0.45599
 H251 H 0.19679 0.46817 0.48660
 H252 H 0.25468 0.54396 0.59569
 C253 C 0.25985 0.99903 -0.01559
 C254 C 0.26086 0.99905 0.02013
 C255 C 0.26162 1.01794 0.04055
 C256 C 0.26066 0.98017 0.04042
 C257 C 0.26043 0.98024 -0.03638
 C258 C 0.25745 1.01789 -0.03540
 C259 C 0.27673 1.03204 0.03466
 C260 C 0.27707 1.04998 0.05342
 C261 C 0.26239 1.05429 0.07905
 C262 C 0.24753 1.03965 0.08523
 C263 C 0.24721 1.02177 0.06629
 C264 C 0.27730 0.97479 0.06062
 C265 C 0.27759 0.95656 0.07853
 C266 C 0.26103 0.94369 0.07713
 C267 C 0.24415 0.94938 0.05771
 C268 C 0.24401 0.96745 0.03929
 C269 C 0.24532 0.97611 -0.06071
 C270 C 0.24546 0.95833 -0.07994
 C271 C 0.26083 0.94407 -0.07547
 C272 C 0.27621 0.94867 -0.05129
 C273 C 0.27605 0.96653 -0.03228
 C274 C 0.23948 1.02848 -0.03389
 C275 C 0.23735 1.04648 -0.05213
 C276 C 0.25339 1.05458 -0.07167
 C277 C 0.27141 1.04363 -0.07296
 C278 C 0.27326 1.02537 -0.05547
 H279 H 0.28839 1.02907 0.01568
 H280 H 0.28943 1.06001 0.04850
 H281 H 0.23544 1.04217 0.10351
 H282 H 0.23539 1.01107 0.07119
 H283 H 0.29022 0.98451 0.06182
 H284 H 0.29069 0.95250 0.09356
 H285 H 0.23100 0.97149 0.02398
 H286 H 0.23308 0.98647 -0.06425
 H287 H 0.23288 0.95556 -0.09702
 H288 H 0.28892 0.93894 -0.04777
 H289 H 0.28823 0.96971 -0.01445
 H290 H 0.22714 1.02283 -0.01838
 H291 H 0.22340 1.05443 -0.04930
 H292 H 0.28394 1.04871 -0.08853
 H293 H 0.28718 1.01721 -0.05708
 H294 H 0.23126 0.93963 0.05619
 C295 C 0.77171 0.50360 0.47673
 C296 C 0.77467 0.50381 0.51217
 C297 C 0.77648 0.52276 0.53211
 C298 C 0.77490 0.48504 0.53282
 C299 C 0.77162 0.48451 0.45692
 C300 C 0.76807 0.52229 0.45663
 C301 C 0.79080 0.53718 0.52288
 C302 C 0.79113 0.55570 0.53980
 C303 C 0.77722 0.56008 0.56641
 C304 C 0.76338 0.54530 0.57636
 C305 C 0.76310 0.52679 0.55951
 C306 C 0.79215 0.47932 0.55105
 C307 C 0.79254 0.46134 0.56976
 C308 C 0.77552 0.44908 0.57112
 C309 C 0.75814 0.45507 0.55341
 C310 C 0.75786 0.47287 0.53427
 C311 C 0.75475 0.47892 0.43748
 C312 C 0.75389 0.46019 0.42132
 C313 C 0.76997 0.44679 0.42415
 C314 C 0.78717 0.45280 0.44251
 C315 C 0.78800 0.47151 0.45862
 C316 C 0.75308 0.53570 0.46704
 C317 C 0.75087 0.55402 0.44992
 C318 C 0.76328 0.55906 0.42151
 C319 C 0.77759 0.54520 0.40996
 C320 C 0.77997 0.52696 0.42741
 H321 H 0.80143 0.53421 0.50209
 H322 H 0.80218 0.56664 0.53195
 H323 H 0.75229 0.54826 0.59637
 H324 H 0.75191 0.51588 0.56693
 H325 H 0.80538 0.48863 0.55027
 H326 H 0.80604 0.45708 0.58346
 H327 H 0.74438 0.47718 0.52053
 H328 H 0.74197 0.48878 0.43587
 H329 H 0.74039 0.45593 0.40760
 H330 H 0.79994 0.44298 0.44454
 H331 H 0.80131 0.47574 0.47298
 H332 H 0.74334 0.53214 0.48889
 H333 H 0.73947 0.56428 0.45889
 H334 H 0.78736 0.54875 0.38815
 H335 H 0.79150 0.51675 0.41880
 H336 H 0.74488 0.44580 0.55395
 O337 O 0.25658 0.22324 0.23611
 O338 O 0.24977 0.27226 0.27854
 O339 O 0.22867 0.25021 0.23636
 O340 O 0.27785 0.24529 0.27860
 O341 O 0.29184 0.26063 0.23354
 O342 O 0.24281 0.26454 0.19045
 O343 O 0.26343 0.28700 0.23258
 O344 O 0.27109 0.23795 0.19095
 Cu345 Cu 0.25186 0.24624 0.26199
 Cu346 Cu 0.26876 0.26395 0.20732
 C347 C 0.26491 0.22221 0.20616
 C348 C 0.25529 0.28805 0.26268
 C349 C 0.22731 0.25819 0.20614
 C350 C 0.29323 0.25235 0.26349
 O351 O 0.75090 0.77887 0.22406
 O352 O 0.75466 0.72969 0.26756
 O353 O 0.77840 0.75150 0.22933
 O354 O 0.72749 0.75718 0.26355
 O355 O 0.71540 0.74274 0.21603
 O356 O 0.76661 0.73690 0.18172
 O357 O 0.74285 0.71524 0.21979
 O358 O 0.73936 0.76415 0.17633
 Cu359 Cu 0.75403 0.75581 0.25086
 Cu360 Cu 0.73976 0.73835 0.19371
 C361 C 0.74474 0.77984 0.19251
 C362 C 0.74945 0.71404 0.25099
 C363 C 0.78128 0.74319 0.19977
 C364 C 0.71273 0.75076 0.24595
 O365 O 0.73812 0.23293 0.20572
 O366 O 0.73978 0.28336 0.24415
 O367 O 0.76362 0.26238 0.20541
 O368 O 0.71405 0.25413 0.24447
 O369 O 0.72814 0.24242 0.29262
 O370 O 0.77770 0.24900 0.25231
 O371 O 0.75452 0.27115 0.29129
 O372 O 0.75153 0.22052 0.25393
 Cu373 Cu 0.73743 0.25941 0.22016
 Cu374 Cu 0.75436 0.24458 0.27739
 C375 C 0.74452 0.21808 0.22322
 C376 C 0.74766 0.28593 0.27416
 C377 C 0.77910 0.25692 0.22206
 C378 C 0.71258 0.24699 0.27531
 O379 O 0.21095 0.75212 0.25922
 O380 O 0.25965 0.75883 0.30217
 O381 O 0.23666 0.78120 0.26253
 O382 O 0.23383 0.72997 0.29773
 O383 O 0.24917 0.71871 0.25039
 O384 O 0.25221 0.76987 0.21548
 O385 O 0.27484 0.74761 0.25469
 O386 O 0.22604 0.74114 0.21146
 Cu387 Cu 0.23380 0.75674 0.28517
 Cu388 Cu 0.25205 0.74320 0.22820
 C389 C 0.21014 0.74549 0.22800
 C390 C 0.27556 0.75416 0.28600
 C391 C 0.24487 0.78427 0.23290
 C392 C 0.24109 0.71559 0.28011
 O393 O 0.76278 0.27886 0.72284
 O394 O 0.75642 0.22861 0.76089
 O395 O 0.73633 0.25064 0.71645
 O396 O 0.78284 0.25680 0.76664
 O397 O 0.76582 0.26955 0.81087
 O398 O 0.71922 0.26345 0.76054
 O399 O 0.73891 0.24150 0.80448
 O400 O 0.74551 0.29168 0.76674
 Cu401 Cu 0.76130 0.25243 0.73730
 Cu402 Cu 0.74073 0.26787 0.79015
 C403 C 0.75507 0.29385 0.73815
 C404 C 0.74652 0.22649 0.78914
 C405 C 0.71982 0.25605 0.72982
 C406 C 0.78232 0.26413 0.79740
 O407 O 0.25493 0.77543 0.76561
 O408 O 0.24896 0.72622 0.72309
 O409 O 0.22746 0.74792 0.76515
 O410 O 0.27644 0.75382 0.72269
 O411 O 0.29088 0.73944 0.76819
 O412 O 0.24182 0.73349 0.81070
 O413 O 0.26337 0.71187 0.76867
 O414 O 0.26937 0.76091 0.81098
 Cu415 Cu 0.25055 0.75233 0.73956
 Cu416 Cu 0.26784 0.73500 0.79416
 C417 C 0.26307 0.77656 0.79572
 C418 C 0.25505 0.71059 0.73875
 C419 C 0.22622 0.73965 0.79514
 C420 C 0.29205 0.74758 0.73808
 O421 O 0.21934 0.25028 0.77004
 O422 O 0.26598 0.24306 0.72088
 O423 O 0.24542 0.22198 0.76597
 O424 O 0.23993 0.27181 0.72575
 O425 O 0.25729 0.28500 0.76921
 O426 O 0.26271 0.23537 0.80940
 O427 O 0.28303 0.25635 0.76461
 O428 O 0.23618 0.26398 0.81367
 Cu429 Cu 0.24097 0.24547 0.74124
 Cu430 Cu 0.26144 0.26152 0.79371
 C431 C 0.21975 0.25825 0.80029
 C432 C 0.28250 0.24848 0.73424
 C433 C 0.25504 0.22020 0.79457
 C434 C 0.24788 0.28690 0.74046
 O435 O 0.74010 0.71731 0.75626
 O436 O 0.73121 0.76626 0.79678
 O437 O 0.71209 0.74413 0.75125
 O438 O 0.75945 0.73978 0.80024
 O439 O 0.77537 0.75355 0.75558
 O440 O 0.72801 0.75967 0.70841
 O441 O 0.74780 0.78088 0.75379
 O442 O 0.75525 0.73187 0.71157
 Cu443 Cu 0.73406 0.74042 0.78049
 Cu444 Cu 0.75316 0.75797 0.72791
 C445 C 0.74918 0.71615 0.72705
 C446 C 0.73819 0.78194 0.78254
 C447 C 0.71198 0.75284 0.72154
 C448 C 0.77556 0.74575 0.78600
 C449 C 0.25346 0.09239 0.14961
 C450 C 0.26203 0.10992 0.13524
 C451 C 0.27102 0.10837 0.10167
 C452 C 0.27125 0.09008 0.08351
 C453 C 0.26249 0.07271 0.09784
 C454 C 0.25367 0.07432 0.13132
 C455 C 0.27960 0.12515 0.08602
 C456 C 0.27938 0.14356 0.10276
 C457 C 0.27049 0.14603 0.13613
 C458 C 0.26183 0.12888 0.15281
 C459 C 0.25316 0.13129 0.18639
 C460 C 0.25266 0.14976 0.20290
 C461 C 0.26072 0.16664 0.18681
 C462 C 0.26985 0.16510 0.15329
 C463 C 0.27776 0.18282 0.13830
 C464 C 0.27635 0.20114 0.15566
 C465 C 0.26711 0.20256 0.18857
 C466 C 0.25947 0.18515 0.20409
 H467 H 0.24645 0.09200 0.17505
 H468 H 0.27753 0.08985 0.05731
 H469 H 0.24744 0.06143 0.14453
 H470 H 0.28655 0.12407 0.06036
 H471 H 0.28635 0.15561 0.08859
 H472 H 0.24652 0.11916 0.20083
 H473 H 0.24573 0.15084 0.22859
 H474 H 0.28499 0.18317 0.11306
 H475 H 0.28242 0.21432 0.14300
 H476 H 0.25228 0.18601 0.22957
 C477 C 0.77736 0.61639 0.57758
 C478 C 0.77282 0.61875 0.61371
 C479 C 0.77031 0.60117 0.63410
 C480 C 0.77245 0.58222 0.61882
 C481 C 0.77659 0.58017 0.58292
 C482 C 0.77915 0.59744 0.56257
 C483 C 0.76541 0.60251 0.66958
 C484 C 0.76222 0.62092 0.68527
 C485 C 0.76407 0.63890 0.66608
 C486 C 0.77024 0.63784 0.63009
 C487 C 0.77371 0.65589 0.61181
 C488 C 0.77070 0.67432 0.62769
 C489 C 0.76377 0.67558 0.66215
 C490 C 0.76014 0.65792 0.68179
 C491 C 0.75237 0.66007 0.71619
 C492 C 0.74879 0.67890 0.73050
 C493 C 0.75282 0.69628 0.71126
 C494 C 0.76033 0.69449 0.67703
 H495 H 0.77905 0.62883 0.55987
 H496 H 0.77069 0.56897 0.63496
 H497 H 0.78197 0.59633 0.53461
 H498 H 0.76372 0.58912 0.68538
 H499 H 0.75860 0.62052 0.71282
 H500 H 0.77910 0.65635 0.58517
 H501 H 0.77363 0.68776 0.61262
 H502 H 0.74851 0.64754 0.73260
 H503 H 0.74287 0.67980 0.75694
 H504 H 0.76332 0.70784 0.66172
 C505 C 0.73722 0.91036 0.14001
 C506 C 0.74229 0.89229 0.12298
 C507 C 0.74670 0.89318 0.08661
 C508 C 0.74703 0.91156 0.06878
 C509 C 0.74213 0.92953 0.08598
 C510 C 0.73699 0.92850 0.12181
 C511 C 0.75057 0.87568 0.06796
 C512 C 0.74979 0.85719 0.08442
 C513 C 0.74565 0.85547 0.12068
 C514 C 0.74277 0.87337 0.14059
 C515 C 0.74093 0.87178 0.17747
 C516 C 0.74149 0.85335 0.19426
 C517 C 0.74323 0.83571 0.17503
 C518 C 0.74482 0.83646 0.13787
 C519 C 0.74522 0.81810 0.11944
 C520 C 0.74484 0.79989 0.13729
 C521 C 0.74422 0.79927 0.17404
 C522 C 0.74335 0.81727 0.19278
 H523 H 0.73295 0.91097 0.16728
 H524 H 0.75010 0.91156 0.04082
 H525 H 0.73347 0.94184 0.13660
 H526 H 0.75403 0.87625 0.04014
 H527 H 0.75316 0.84448 0.06812
 H528 H 0.73970 0.88465 0.19433
 H529 H 0.74033 0.85290 0.22267
 H530 H 0.74542 0.81726 0.09117
 H531 H 0.74533 0.78619 0.12217
 H532 H 0.74250 0.81691 0.22124
 C533 C 0.21145 0.39172 0.60800
 C534 C 0.22759 0.38615 0.62997
 C535 C 0.24301 0.40037 0.63533
 C536 C 0.24263 0.41888 0.61796
 C537 C 0.22670 0.42395 0.59595
 C538 C 0.21105 0.41034 0.59146
 C539 C 0.25875 0.39611 0.65802
 C540 C 0.25946 0.37811 0.67610
 C541 C 0.24462 0.36334 0.67151
 C542 C 0.22885 0.36711 0.64703
 C543 C 0.21518 0.35157 0.63979
 C544 C 0.21664 0.33310 0.65625
 C545 C 0.23139 0.32950 0.68127
 C546 C 0.24532 0.34469 0.68991
 C547 C 0.25926 0.34062 0.71693
 C548 C 0.25977 0.32203 0.73351
 C549 C 0.24654 0.30681 0.72374
 C550 C 0.23229 0.31070 0.69769
 H551 H 0.19873 0.38221 0.60354
 H552 H 0.25460 0.42956 0.62199
 H553 H 0.19854 0.41405 0.57465
 H554 H 0.27062 0.40689 0.66209
 H555 H 0.27227 0.37599 0.69277
 H556 H 0.20345 0.35299 0.62062
 H557 H 0.20597 0.32154 0.64945
 H558 H 0.26978 0.35155 0.72634
 H559 H 0.27081 0.31949 0.75382
 H560 H 0.22175 0.29912 0.69037
 C561 C 0.90257 0.23637 0.14136
 C562 C 0.88918 0.25255 0.14416
 C563 C 0.89454 0.27070 0.12754
 C564 C 0.91314 0.27278 0.11087
 C565 C 0.92663 0.25661 0.10829
 C566 C 0.92069 0.23830 0.12357
 C567 C 0.88115 0.28666 0.12708
 C568 C 0.86232 0.28482 0.14199
 C569 C 0.85638 0.26711 0.15924
 C570 C 0.87047 0.25116 0.16209
 C571 C 0.86557 0.23457 0.18337
 C572 C 0.84725 0.23328 0.20031
 C573 C 0.83283 0.24804 0.19571
 C574 C 0.83697 0.26496 0.17443
 C575 C 0.82132 0.27876 0.16855
 C576 C 0.80257 0.27602 0.18384
 C577 C 0.79892 0.25973 0.20598
 C578 C 0.81414 0.24584 0.21198
 H579 H 0.89929 0.22179 0.15197
 H580 H 0.91627 0.28681 0.09777
 H581 H 0.93039 0.22540 0.12378
 H582 H 0.88514 0.30065 0.11451
 H583 H 0.85293 0.29786 0.14063
 H584 H 0.87591 0.22259 0.18844
 H585 H 0.84423 0.22037 0.21672
 H586 H 0.82290 0.29149 0.15139
 H587 H 0.79090 0.28680 0.17857
 H588 H 0.81121 0.23295 0.22851
 C589 C 0.38854 0.76673 0.57777
 C590 C 0.38706 0.76163 0.61385
 C591 C 0.40495 0.75675 0.63177
 C592 C 0.42338 0.75709 0.61419
 C593 C 0.42452 0.76197 0.57843
 C594 C 0.40694 0.76686 0.56052
 C595 C 0.40443 0.75136 0.66713
 C596 C 0.38647 0.75021 0.68515
 C597 C 0.36815 0.75459 0.66854
 C598 C 0.36849 0.76092 0.63255
 C599 C 0.35029 0.76636 0.61652
 C600 C 0.33232 0.76518 0.63455
 C601 C 0.33164 0.75838 0.66915
 C602 C 0.34949 0.75293 0.68673
 C603 C 0.34779 0.74575 0.72166
 C604 C 0.32924 0.74416 0.73817
 C605 C 0.31172 0.74967 0.72066
 C606 C 0.31309 0.75687 0.68615
 H607 H 0.37578 0.77031 0.56181
 H608 H 0.43691 0.75353 0.62847
 H609 H 0.40732 0.77036 0.53273
 H610 H 0.41809 0.74777 0.68102
 H611 H 0.38754 0.74595 0.71236
 H612 H 0.34935 0.77180 0.58996
 H613 H 0.31874 0.76950 0.62107
 H614 H 0.36042 0.74092 0.73691
 H615 H 0.32866 0.73848 0.76481
 H616 H 0.29963 0.76110 0.67220
 C617 C 0.11171 0.73872 0.06898
 C618 C 0.11389 0.73662 0.10583
 C619 C 0.09629 0.73417 0.12613
 C620 C 0.07750 0.73319 0.10985
 C621 C 0.07570 0.73520 0.07339
 C622 C 0.09292 0.73808 0.05319
 C623 C 0.09746 0.73285 0.16261
 C624 C 0.11569 0.73439 0.17969
 C625 C 0.13367 0.73693 0.16081
 C626 C 0.13283 0.73722 0.12322
 C627 C 0.15096 0.73781 0.10430
 C628 C 0.16924 0.73874 0.12139
 C629 C 0.17025 0.73956 0.15794
 C630 C 0.15250 0.73891 0.17825
 C631 C 0.15436 0.74071 0.21518
 C632 C 0.17302 0.74277 0.23105
 C633 C 0.19049 0.74296 0.21087
 C634 C 0.18898 0.74123 0.17428
 H635 H 0.12414 0.74129 0.05160
 H636 H 0.06416 0.73129 0.12567
 H637 H 0.09186 0.73966 0.02491
 H638 H 0.08408 0.73083 0.17824
 H639 H 0.11521 0.73309 0.20788
 H640 H 0.15160 0.73715 0.07605
 H641 H 0.18275 0.73909 0.10572
 H642 H 0.14170 0.74107 0.23260
 H643 H 0.17374 0.74421 0.25937
 H644 H 0.20241 0.74166 0.15837
 C645 C 0.59095 0.24841 0.66711
 C646 C 0.60985 0.24879 0.65039
 C647 C 0.61030 0.24680 0.61328
 C648 C 0.59250 0.24522 0.59398
 C649 C 0.57398 0.24504 0.61102
 C650 C 0.57339 0.24651 0.64767
 C651 C 0.62849 0.24628 0.59556
 C652 C 0.64639 0.24740 0.61380
 C653 C 0.64684 0.24948 0.65073
 C654 C 0.62826 0.25083 0.66920
 C655 C 0.62869 0.25450 0.70573
 C656 C 0.64657 0.25642 0.72377
 C657 C 0.66477 0.25442 0.70643
 C658 C 0.66525 0.25063 0.66978
 C659 C 0.68418 0.24796 0.65387
 C660 C 0.70175 0.24953 0.67343
 C661 C 0.70114 0.25387 0.70940
 C662 C 0.68255 0.25622 0.72572
 H663 H 0.58916 0.24920 0.69519
 H664 H 0.59305 0.24371 0.56562
 H665 H 0.55923 0.24638 0.66140
 H666 H 0.62892 0.24484 0.56719
 H667 H 0.65969 0.24702 0.59795
 H668 H 0.61539 0.25644 0.72122
 H669 H 0.64613 0.25941 0.75177
 H670 H 0.68600 0.24436 0.62648
 H671 H 0.71591 0.24749 0.66016
 H672 H 0.68187 0.25932 0.75366
 C673 C 0.76812 0.10253 0.86834
 C674 C 0.75177 0.11573 0.86500
 C675 C 0.73343 0.10992 0.88048
 C676 C 0.73143 0.09119 0.89681
 C677 C 0.74776 0.07808 0.89987
 C678 C 0.76617 0.08424 0.88566
 C679 C 0.71720 0.12294 0.88007
 C680 C 0.71890 0.14188 0.86545
 C681 C 0.73681 0.14834 0.84951
 C682 C 0.75314 0.13464 0.84760
 C683 C 0.77011 0.14015 0.82781
 C684 C 0.77139 0.15866 0.81146
 C685 C 0.75616 0.17269 0.81510
 C686 C 0.73881 0.16792 0.83479
 C687 C 0.72441 0.18314 0.83963
 C688 C 0.72704 0.20208 0.82491
 C689 C 0.74385 0.20640 0.80445
 C690 C 0.75831 0.19159 0.79947
 H691 H 0.78280 0.10610 0.85859
 H692 H 0.71727 0.08742 0.90888
 H693 H 0.77913 0.07463 0.88658
 H694 H 0.70308 0.11857 0.89170
 H695 H 0.70563 0.15095 0.86607
 H696 H 0.78248 0.13017 0.82354
 H697 H 0.78463 0.16216 0.79626
 H698 H 0.71126 0.18111 0.85552
 H699 H 0.71576 0.21338 0.82938
 H700 H 0.77158 0.19500 0.78424
 C701 C 0.20867 0.60622 0.40401
 C702 C 0.22420 0.61261 0.38133
 C703 C 0.23954 0.59873 0.37339
 C704 C 0.23975 0.57975 0.38915
 C705 C 0.22447 0.57391 0.41203
 C706 C 0.20884 0.58717 0.41893
 C707 C 0.25461 0.60384 0.34977
 C708 C 0.25474 0.62237 0.33338
 C709 C 0.24001 0.63685 0.34072
 C710 C 0.22493 0.63216 0.36608
 C711 C 0.21142 0.64731 0.37606
 C712 C 0.21239 0.66629 0.36145
 C713 C 0.22645 0.67084 0.33567
 C714 C 0.24017 0.65609 0.32426
 C715 C 0.25338 0.66123 0.29660
 C716 C 0.25338 0.68038 0.28202
 C717 C 0.24038 0.69510 0.29456
 C718 C 0.22686 0.69017 0.32127
 H719 H 0.19600 0.61542 0.41031
 H720 H 0.25170 0.56935 0.38327
 H721 H 0.19682 0.58286 0.43643
 H722 H 0.26640 0.59331 0.34368
 H723 H 0.26704 0.62512 0.31580
 H724 H 0.20024 0.64517 0.39605
 H725 H 0.20189 0.67752 0.37034
 H726 H 0.26368 0.65073 0.28520
 H727 H 0.26385 0.68376 0.26113
 H728 H 0.21648 0.70137 0.33070
 C729 C 0.25050 0.90597 0.85454
 C730 C 0.25983 0.88860 0.86790
 C731 C 0.26975 0.89026 0.90063
 C732 C 0.27022 0.90851 0.91888
 C733 C 0.26072 0.92572 0.90556
 C734 C 0.25092 0.92400 0.87296
 C735 C 0.27904 0.87362 0.91537
 C736 C 0.27860 0.85523 0.89859
 C737 C 0.26881 0.85265 0.86604
 C738 C 0.25950 0.86969 0.85018
 C739 C 0.25014 0.86722 0.81720
 C740 C 0.24957 0.84879 0.80052
 C741 C 0.25818 0.83199 0.81591
 C742 C 0.26797 0.83361 0.84884
 C743 C 0.27630 0.81597 0.86329
 C744 C 0.27482 0.79768 0.84587
 C745 C 0.26507 0.79619 0.81343
 C746 C 0.25689 0.81350 0.79852
 H747 H 0.24268 0.90624 0.82985
 H748 H 0.27727 0.90882 0.94447
 H749 H 0.24404 0.93678 0.86051
 H750 H 0.28671 0.87479 0.94037
 H751 H 0.28619 0.84330 0.91199
 H752 H 0.24307 0.87929 0.80330
 H753 H 0.24214 0.84767 0.77529
 H754 H 0.28391 0.81564 0.88817
 H755 H 0.28129 0.78458 0.85809
 H756 H 0.24926 0.81257 0.77345
 C757 C 0.77419 0.39062 0.41422
 C758 C 0.76540 0.38708 0.38093
 C759 C 0.75823 0.40388 0.36201
 C760 C 0.75988 0.42323 0.37602
 C761 C 0.76860 0.42639 0.40900
 C762 C 0.77571 0.40991 0.42786
 C763 C 0.74940 0.40134 0.32918
 C764 C 0.74738 0.38248 0.31452
 C765 C 0.75419 0.36520 0.33216
 C766 C 0.76343 0.36755 0.36587
 C767 C 0.77043 0.35030 0.38335
 C768 C 0.76849 0.33145 0.36863
 C769 C 0.75949 0.32889 0.33596
 C770 C 0.75215 0.34565 0.31718
 C771 C 0.74306 0.34206 0.28415
 C772 C 0.74156 0.32276 0.27050
 C773 C 0.74899 0.30632 0.28913
 C774 C 0.75788 0.30954 0.32195
 H775 H 0.77993 0.37887 0.43066
 H776 H 0.75451 0.43591 0.36102
 H777 H 0.78221 0.41187 0.45369
 H778 H 0.74392 0.41413 0.31460
 H779 H 0.74039 0.38202 0.28908
 H780 H 0.77761 0.35077 0.40862
 H781 H 0.77414 0.31868 0.38309
 H782 H 0.73693 0.35376 0.26804
 H783 H 0.73457 0.32074 0.24508
 H784 H 0.76368 0.29694 0.33669
 C785 C 0.09617 0.23968 0.88377
 C786 C 0.11154 0.25413 0.88690
 C787 C 0.10850 0.27018 0.91064
 C788 C 0.09035 0.27210 0.92884
 C789 C 0.07526 0.25779 0.92491
 C790 C 0.07841 0.24150 0.90263
 C791 C 0.12361 0.28415 0.91628
 C792 C 0.14190 0.28242 0.89933
 C793 C 0.14561 0.26689 0.87510
 C794 C 0.12988 0.25302 0.86772
 C795 C 0.13281 0.23879 0.84085
 C796 C 0.15063 0.23776 0.82243
 C797 C 0.16645 0.25048 0.83052
 C798 C 0.16438 0.26500 0.85739
 C799 C 0.18133 0.27681 0.86564
 C800 C 0.19928 0.27451 0.84735
 C801 C 0.20090 0.26061 0.82005
 C802 C 0.18440 0.24865 0.81183
 H803 H 0.09754 0.22655 0.86762
 H804 H 0.08807 0.28452 0.94668
 H805 H 0.06696 0.23020 0.89954
 H806 H 0.12136 0.29647 0.93433
 H807 H 0.15268 0.29391 0.90506
 H808 H 0.12133 0.22853 0.83261
 H809 H 0.15211 0.22670 0.80177
 H810 H 0.18135 0.28764 0.88656
 H811 H 0.21191 0.28380 0.85443
 H812 H 0.18563 0.23756 0.79116
 C813 C 0.61140 0.76670 0.39721
 C814 C 0.61394 0.76116 0.36156
 C815 C 0.59675 0.75497 0.34273
 C816 C 0.57789 0.75477 0.35898
 C817 C 0.57568 0.76045 0.39422
 C818 C 0.59264 0.76633 0.41308
 C819 C 0.59842 0.74895 0.30780
 C820 C 0.61684 0.74858 0.29107
 C821 C 0.63447 0.75447 0.30859
 C822 C 0.63291 0.76130 0.34418
 C823 C 0.65036 0.76815 0.36116
 C824 C 0.66876 0.76781 0.34453
 C825 C 0.67065 0.76058 0.31039
 C826 C 0.65361 0.75382 0.29175
 C827 C 0.65661 0.74643 0.25722
 C828 C 0.67566 0.74570 0.24226
 C829 C 0.69238 0.75234 0.26099
 C830 C 0.68966 0.75993 0.29497
 H831 H 0.62359 0.77110 0.41391
 H832 H 0.56486 0.75032 0.34401
 H833 H 0.59147 0.77036 0.44057
 H834 H 0.58531 0.74430 0.29322
 H835 H 0.61668 0.74372 0.26412
 H836 H 0.65036 0.77408 0.38743
 H837 H 0.68172 0.77316 0.35876
 H838 H 0.64464 0.74079 0.24117
 H839 H 0.67730 0.73972 0.21598
 H840 H 0.70247 0.76508 0.30987
 C841 C 0.90597 0.73619 0.83571
 C842 C 0.88772 0.73768 0.85437
 C843 C 0.88855 0.73706 0.89160
 C844 C 0.90697 0.73602 0.90907
 C845 C 0.92485 0.73500 0.89011
 C846 C 0.92417 0.73483 0.85339
 C847 C 0.87100 0.73749 0.91126
 C848 C 0.85252 0.73833 0.89488
 C849 C 0.85083 0.73927 0.85792
 C850 C 0.86875 0.73959 0.83741
 C851 C 0.86715 0.74227 0.80071
 C852 C 0.84874 0.74426 0.78447
 C853 C 0.83114 0.74324 0.80389
 C854 C 0.83183 0.74037 0.84079
 C855 C 0.81340 0.73856 0.85886
 C856 C 0.79523 0.74011 0.84105
 C857 C 0.79475 0.74364 0.80480
 C858 C 0.81280 0.74510 0.78641
 H859 H 0.90675 0.73573 0.80746
 H860 H 0.90742 0.73572 0.93757
 H861 H 0.93783 0.73393 0.83824
 H862 H 0.87155 0.73704 0.93973
 H863 H 0.83978 0.73877 0.91211
 H864 H 0.87995 0.74347 0.78371
 H865 H 0.84829 0.74652 0.75626
 H866 H 0.81246 0.73563 0.88664
 H867 H 0.78148 0.73873 0.85584
 H868 H 0.81260 0.74750 0.75822
 C869 C 0.39456 0.21875 0.40590
 C870 C 0.38989 0.23405 0.38150
 C871 C 0.40462 0.24886 0.37501
 C872 C 0.42273 0.24875 0.39359
 C873 C 0.42689 0.23369 0.41803
 C874 C 0.41279 0.21859 0.42368
 C875 C 0.40125 0.26369 0.35000
 C876 C 0.38366 0.26411 0.33079
 C877 C 0.36839 0.24990 0.33646
 C878 C 0.37127 0.23507 0.36313
 C879 C 0.35526 0.22209 0.37114
 C880 C 0.33718 0.22333 0.35348
 C881 C 0.33443 0.23716 0.32652
 C882 C 0.35011 0.25035 0.31700
 C883 C 0.34684 0.26334 0.28816
 C884 C 0.32855 0.26367 0.27060
 C885 C 0.31286 0.25121 0.28117
 C886 C 0.31597 0.23789 0.30905
 H887 H 0.38463 0.20648 0.41145
 H888 H 0.43379 0.26026 0.38865
 H889 H 0.41579 0.20673 0.44233
 H890 H 0.41243 0.27507 0.34502
 H891 H 0.38225 0.27621 0.31229
 H892 H 0.35600 0.21111 0.39180
 H893 H 0.32524 0.21324 0.36093
 H894 H 0.35818 0.27323 0.27811
 H895 H 0.32661 0.27398 0.24890
 H896 H 0.30402 0.22793 0.31705
 C897 C 0.74466 0.91210 0.83827
 C898 C 0.73692 0.89426 0.85284
 C899 C 0.72802 0.89546 0.88654
 C900 C 0.72746 0.91365 0.90494
 C901 C 0.73578 0.93124 0.89070
 C902 C 0.74413 0.93007 0.85680
 C903 C 0.71997 0.87842 0.90215
 C904 C 0.72069 0.86007 0.88530
 C905 C 0.72967 0.85792 0.85194
 C906 C 0.73786 0.87532 0.83535
 C907 C 0.74700 0.87314 0.80211
 C908 C 0.74834 0.85467 0.78578
 C909 C 0.74063 0.83758 0.80168
 C910 C 0.73100 0.83890 0.83481
 C911 C 0.72329 0.82101 0.84946
 C912 C 0.72546 0.80273 0.83228
 C913 C 0.73531 0.80152 0.79989
 C914 C 0.74270 0.81909 0.78462
 H915 H 0.75122 0.91283 0.81248
 H916 H 0.72141 0.91361 0.93132
 H917 H 0.74982 0.94320 0.84357
 H918 H 0.71309 0.87924 0.92791
 H919 H 0.71418 0.84778 0.89951
 H920 H 0.75353 0.88543 0.78792
 H921 H 0.75566 0.85376 0.76041
 H922 H 0.71556 0.82050 0.87424
 H923 H 0.71950 0.78943 0.84468
 H924 H 0.75028 0.81838 0.75947
 C925 C 0.22506 0.38631 0.41454
 C926 C 0.23218 0.38441 0.37961
 C927 C 0.23700 0.40224 0.36128
 C928 C 0.23471 0.42098 0.37739
 C929 C 0.22784 0.42254 0.41206
 C930 C 0.22297 0.40502 0.43033
 C931 C 0.24421 0.40136 0.32699
 C932 C 0.24714 0.38314 0.31042
 C933 C 0.24283 0.36489 0.32748
 C934 C 0.23488 0.36554 0.36244
 C935 C 0.22987 0.34731 0.37899
 C936 C 0.23278 0.32909 0.36236
 C937 C 0.24090 0.32817 0.32870
 C938 C 0.24613 0.34600 0.31072
 C939 C 0.25461 0.34409 0.27676
 C940 C 0.25754 0.32537 0.26147
 C941 C 0.25218 0.30784 0.27927
 C942 C 0.24386 0.30940 0.31295
 H943 H 0.22125 0.37366 0.43071
 H944 H 0.23827 0.43444 0.36279
 H945 H 0.21794 0.40573 0.45735
 H946 H 0.24780 0.41495 0.31279
 H947 H 0.25271 0.38397 0.28394
 H948 H 0.22350 0.34652 0.40491
 H949 H 0.22868 0.31551 0.37618
 H950 H 0.25933 0.35670 0.26128
 H951 H 0.26407 0.32466 0.23545
 H952 H 0.23970 0.29596 0.32711
 C953 C 0.23124 0.09790 0.87991
 C954 C 0.24786 0.11066 0.87525
 C955 C 0.26630 0.10456 0.88988
 C956 C 0.26813 0.08591 0.90651
 C957 C 0.25153 0.07319 0.91077
 C958 C 0.23303 0.07970 0.89758
 C959 C 0.28284 0.11720 0.88826
 C960 C 0.28139 0.13603 0.87320
 C961 C 0.26340 0.14275 0.85797
 C962 C 0.24670 0.12942 0.85733
 C963 C 0.22958 0.13511 0.83816
 C964 C 0.22856 0.15343 0.82111
 C965 C 0.24421 0.16712 0.82349
 C966 C 0.26168 0.16219 0.84265
 C967 C 0.27652 0.17713 0.84634
 C968 C 0.27422 0.19592 0.83091
 C969 C 0.25730 0.20033 0.81084
 C970 C 0.24238 0.18584 0.80709
 H971 H 0.21648 0.10176 0.87094
 H972 H 0.28240 0.08190 0.91785
 H973 H 0.21984 0.07041 0.89954
 H974 H 0.29704 0.11260 0.89926
 H975 H 0.29489 0.14479 0.87285
 H976 H 0.21690 0.12538 0.83485
 H977 H 0.21521 0.15706 0.80636
 H978 H 0.28979 0.17500 0.86185
 H979 H 0.28583 0.20701 0.83446
 H980 H 0.22904 0.18936 0.79220
 C981 C 0.75918 0.61504 0.40934
 C982 C 0.75907 0.61719 0.37229
 C983 C 0.75979 0.59951 0.35177
 C984 C 0.76129 0.58068 0.36790
 C985 C 0.76161 0.57892 0.40454
 C986 C 0.76039 0.59623 0.42504
 C987 C 0.75896 0.60065 0.31525
 C988 C 0.75713 0.61895 0.29840
 C989 C 0.75641 0.63703 0.31748
 C990 C 0.75806 0.63618 0.35497
 C991 C 0.75899 0.65433 0.37382
 C992 C 0.75794 0.67266 0.35684
 C993 C 0.75552 0.67374 0.32052
 C994 C 0.75442 0.65597 0.30029
 C995 C 0.75113 0.65797 0.26369
 C996 C 0.74946 0.67674 0.24800
 C997 C 0.75109 0.69421 0.26803
 C998 C 0.75412 0.69257 0.30434
 H999 H 0.75806 0.62754 0.42704
 H1000 H 0.76190 0.56729 0.35189
 H1001 H 0.76064 0.59522 0.45346
 H1002 H 0.75960 0.58719 0.29944
 H1003 H 0.75677 0.61840 0.27013
 H1004 H 0.76099 0.65494 0.40187
 H1005 H 0.75888 0.68619 0.37243
 H1006 H 0.74942 0.64535 0.24641
 H1007 H 0.74698 0.67755 0.21991
 H1008 H 0.75514 0.70600 0.32019
 C1009 C 0.09482 0.74348 0.84085
 C1010 C 0.11237 0.73604 0.85680
 C1011 C 0.11036 0.72656 0.88990
 C1012 C 0.09159 0.72475 0.90607
 C1013 C 0.07420 0.73245 0.89022
 C1014 C 0.07626 0.74177 0.85724
 C1015 C 0.12713 0.71908 0.90709
 C1016 C 0.14598 0.72086 0.89233
 C1017 C 0.14890 0.73024 0.85947
 C1018 C 0.13178 0.73781 0.84124
 C1019 C 0.13466 0.74694 0.80815
 C1020 C 0.15350 0.74878 0.79342
 C1021 C 0.17031 0.74169 0.81093
 C1022 C 0.16835 0.73232 0.84420
 C1023 C 0.18604 0.72553 0.86076
 C1024 C 0.20468 0.72794 0.84486
 C1025 C 0.20643 0.73717 0.81197
 C1026 C 0.18913 0.74400 0.79519
 H1027 H 0.09477 0.75076 0.81563
 H1028 H 0.09091 0.71817 0.93204
 H1029 H 0.06342 0.74725 0.84298
 H1030 H 0.12569 0.71179 0.93242
 H1031 H 0.15799 0.71463 0.90753
 H1032 H 0.12261 0.75287 0.79266
 H1033 H 0.15492 0.75592 0.76795
 H1034 H 0.18611 0.71835 0.88607
 H1035 H 0.21779 0.72252 0.85849
 H1036 H 0.19026 0.75119 0.76972
 C1037 C 0.61256 0.22538 0.42779
 C1038 C 0.61489 0.22930 0.39140
 C1039 C 0.59731 0.23217 0.37126
 C1040 C 0.57840 0.23112 0.38707
 C1041 C 0.57643 0.22758 0.42320
 C1042 C 0.59368 0.22459 0.44327
 C1043 C 0.59864 0.23634 0.33546
 C1044 C 0.61704 0.23833 0.31915
 C1045 C 0.63504 0.23605 0.33802
 C1046 C 0.63395 0.23085 0.37450
 C1047 C 0.65194 0.22738 0.39283
 C1048 C 0.67035 0.22945 0.37652
 C1049 C 0.67169 0.23526 0.34143
 C1050 C 0.65411 0.23872 0.32160
 C1051 C 0.65643 0.24503 0.28628
 C1052 C 0.67532 0.24762 0.27149
 C1053 C 0.69260 0.24402 0.29116
 C1054 C 0.69063 0.23777 0.32615
 H1055 H 0.62500 0.22334 0.44532
 H1056 H 0.56515 0.23321 0.37116
 H1057 H 0.59264 0.22218 0.47136
 H1058 H 0.58524 0.23835 0.31988
 H1059 H 0.61659 0.24152 0.29144
 H1060 H 0.65237 0.22283 0.41996
 H1061 H 0.68374 0.22665 0.39174
 H1062 H 0.64401 0.24842 0.26939
 H1063 H 0.67636 0.25254 0.24442
 H1064 H 0.70388 0.23503 0.34176
 C1065 C 0.91078 0.25825 0.86355
 C1066 C 0.89224 0.26399 0.87833
 C1067 C 0.89221 0.27045 0.91383
 C1068 C 0.90998 0.27086 0.93344
 C1069 C 0.92812 0.26490 0.91843
 C1070 C 0.92831 0.25870 0.88331
 C1071 C 0.87445 0.27636 0.92975
 C1072 C 0.85656 0.27596 0.91138
 C1073 C 0.85564 0.26953 0.87607
 C1074 C 0.87380 0.26346 0.85926
 C1075 C 0.87289 0.25691 0.82402
 C1076 C 0.85498 0.25614 0.80586
 C1077 C 0.83719 0.26189 0.82184
 C1078 C 0.83717 0.26880 0.85706
 C1079 C 0.81859 0.27457 0.87169
 C1080 C 0.80093 0.27322 0.85228
 C1081 C 0.80110 0.26614 0.81767
 C1082 C 0.81936 0.26062 0.80262
 H1083 H 0.91239 0.25333 0.83678
 H1084 H 0.90961 0.27550 0.96073
 H1085 H 0.94217 0.25434 0.87085
 H1086 H 0.87435 0.28133 0.95686
 H1087 H 0.84363 0.28074 0.92588
 H1088 H 0.88579 0.25209 0.80950
 H1089 H 0.85506 0.25089 0.77890
 H1090 H 0.81706 0.28013 0.89808
 H1091 H 0.78705 0.27765 0.86460
 H1092 H 0.81974 0.25517 0.77579
 C1093 C 0.40674 0.75683 0.33399
 C1094 C 0.38843 0.75604 0.35263
 C1095 C 0.38934 0.75566 0.38988
 C1096 C 0.40779 0.75523 0.40730
 C1097 C 0.42570 0.75570 0.38835
 C1098 C 0.42501 0.75673 0.35167
 C1099 C 0.37184 0.75575 0.40965
 C1100 C 0.35332 0.75638 0.39340
 C1101 C 0.35151 0.75653 0.35643
 C1102 C 0.36934 0.75576 0.33571
 C1103 C 0.36748 0.75427 0.29883
 C1104 C 0.34892 0.75370 0.28268
 C1105 C 0.33145 0.75502 0.30240
 C1106 C 0.33243 0.75690 0.33948
 C1107 C 0.31422 0.75914 0.35797
 C1108 C 0.29592 0.75866 0.34047
 C1109 C 0.29505 0.75591 0.30403
 C1110 C 0.31293 0.75432 0.28513
 H1111 H 0.40753 0.75784 0.30578
 H1112 H 0.40826 0.75487 0.43579
 H1113 H 0.43870 0.75724 0.33654
 H1114 H 0.37245 0.75542 0.43812
 H1115 H 0.34062 0.75619 0.41075
 H1116 H 0.38015 0.75295 0.28158
 H1117 H 0.34826 0.75224 0.25433
 H1118 H 0.31353 0.76149 0.38594
 H1119 H 0.28235 0.76013 0.35572
 H1120 H 0.31246 0.75250 0.25682
 C1121 C 0.27779 0.89234 0.10599
 C1122 C 0.26206 0.88610 0.12835
 C1123 C 0.24637 0.89984 0.13480
 C1124 C 0.24604 0.91849 0.11785
 C1125 C 0.26153 0.92416 0.09527
 C1126 C 0.27750 0.91109 0.08990
 C1127 C 0.23108 0.89491 0.15811
 C1128 C 0.23104 0.87669 0.17557
 C1129 C 0.24608 0.86232 0.16963
 C1130 C 0.26143 0.86683 0.14466
 C1131 C 0.27531 0.85174 0.13608
 C1132 C 0.27440 0.83298 0.15155
 C1133 C 0.26002 0.82862 0.17687
 C1134 C 0.24594 0.84333 0.18701
 C1135 C 0.23240 0.83840 0.21429
 C1136 C 0.23238 0.81941 0.22961
 C1137 C 0.24569 0.80469 0.21817
 C1138 C 0.25959 0.80948 0.19198
 H1139 H 0.29073 0.88327 0.10082
 H1140 H 0.23383 0.92877 0.12258
 H1141 H 0.28969 0.91529 0.07270
 H1142 H 0.21904 0.90534 0.16311
 H1143 H 0.21856 0.87405 0.19282
 H1144 H 0.28675 0.85372 0.11649
 H1145 H 0.28518 0.82177 0.14366
 H1146 H 0.22181 0.84892 0.22477
 H1147 H 0.22162 0.81615 0.25009
 H1148 H 0.27022 0.79828 0.18343
 C1149 C 0.79114 0.39790 0.60313
 C1150 C 0.77559 0.39279 0.62677
 C1151 C 0.76053 0.40725 0.63294
 C1152 C 0.76060 0.42549 0.61469
 C1153 C 0.77583 0.43002 0.59082
 C1154 C 0.79122 0.41625 0.58561
 C1155 C 0.74540 0.40346 0.65717
 C1156 C 0.74485 0.38562 0.67575
 C1157 C 0.75923 0.37054 0.67021
 C1158 C 0.77449 0.37394 0.64452
 C1159 C 0.78778 0.35819 0.63673
 C1160 C 0.78632 0.33981 0.65349
 C1161 C 0.77194 0.33648 0.67931
 C1162 C 0.75851 0.35193 0.68875
 C1163 C 0.74493 0.34807 0.71648
 C1164 C 0.74419 0.32941 0.73283
 C1165 C 0.75685 0.31393 0.72217
 C1166 C 0.77085 0.31766 0.69561
 H1167 H 0.80360 0.38820 0.59790
 H1168 H 0.74886 0.43632 0.61931
 H1169 H 0.80321 0.41955 0.56740
 H1170 H 0.73384 0.41445 0.66194
 H1171 H 0.73249 0.38387 0.69359
 H1172 H 0.79917 0.35935 0.61687
 H1173 H 0.79663 0.32805 0.64616
 H1174 H 0.73481 0.35918 0.72650
 H1175 H 0.73337 0.32701 0.75358
 H1176 H 0.78097 0.30589 0.68757
 C1177 C 0.73014 0.11518 0.07403
 C1178 C 0.73642 0.11833 0.10915
 C1179 C 0.74307 0.10144 0.12842
 C1180 C 0.74323 0.08236 0.11304
 C1181 C 0.73685 0.07957 0.07834
 C1182 C 0.73037 0.09616 0.05907
 C1183 C 0.74954 0.10362 0.16299
 C1184 C 0.74973 0.12223 0.17904
 C1185 C 0.74334 0.13957 0.16113
 C1186 C 0.73642 0.13757 0.12567
 C1187 C 0.72968 0.15485 0.10797
 C1188 C 0.72988 0.17345 0.12400
 C1189 C 0.73680 0.17571 0.15828
 C1190 C 0.74363 0.15887 0.17746
 C1191 C 0.75056 0.16216 0.21216
 C1192 C 0.75070 0.18127 0.22685
 C1193 C 0.74396 0.19780 0.20768
 C1194 C 0.73696 0.19485 0.17339
 H1195 H 0.72507 0.12704 0.05716
 H1196 H 0.74811 0.06958 0.12830
 H1197 H 0.72570 0.09448 0.03197
 H1198 H 0.75459 0.09076 0.17786
 H1199 H 0.75496 0.12242 0.20577
 H1200 H 0.72405 0.15459 0.08150
 H1201 H 0.72458 0.18626 0.10927
 H1202 H 0.75611 0.15038 0.22874
 H1203 H 0.75622 0.18308 0.25341
 H1204 H 0.73172 0.20752 0.15821
 C1205 C 0.22481 0.61109 0.58918
 C1206 C 0.23248 0.61330 0.62368
 C1207 C 0.23788 0.59565 0.64202
 C1208 C 0.23560 0.57679 0.62634
 C1209 C 0.22815 0.57492 0.59210
 C1210 C 0.22273 0.59225 0.57381
 C1211 C 0.24564 0.59685 0.67590
 C1212 C 0.24851 0.61520 0.69205
 C1213 C 0.24361 0.63328 0.67498
 C1214 C 0.23514 0.63231 0.64044
 C1215 C 0.22958 0.65037 0.62389
 C1216 C 0.23236 0.66872 0.64016
 C1217 C 0.24093 0.66995 0.67345
 C1218 C 0.24678 0.65231 0.69136
 C1219 C 0.25569 0.65454 0.72490
 C1220 C 0.25838 0.67337 0.73992
 C1221 C 0.25236 0.69070 0.72225
 C1222 C 0.24366 0.68884 0.68891
 H1223 H 0.22053 0.62358 0.57303
 H1224 H 0.23961 0.56347 0.64097
 H1225 H 0.21724 0.59130 0.54709
 H1226 H 0.24969 0.58340 0.69010
 H1227 H 0.25453 0.61460 0.71824
 H1228 H 0.22283 0.65090 0.59825
 H1229 H 0.22781 0.68214 0.62638
 H1230 H 0.26092 0.64210 0.74028
 H1231 H 0.26522 0.67431 0.76566
 H1232 H 0.23899 0.70214 0.67485
 C1233 C 0.88744 0.72096 0.06123
 C1234 C 0.88365 0.72662 0.09648
 C1235 C 0.90031 0.73152 0.11780
 C1236 C 0.91979 0.73060 0.10424
 C1237 C 0.92322 0.72510 0.06925
 C1238 C 0.90686 0.72026 0.04800
 C1239 C 0.89751 0.73748 0.15251
 C1240 C 0.87848 0.73917 0.16655
 C1241 C 0.86132 0.73476 0.14642
 C1242 C 0.86397 0.72789 0.11108
 C1243 C 0.84687 0.72245 0.09159
 C1244 C 0.82784 0.72410 0.10567
 C1245 C 0.82496 0.73139 0.13958
 C1246 C 0.84160 0.73691 0.16049
 C1247 C 0.83771 0.74460 0.19449
 C1248 C 0.81823 0.74654 0.20701
 C1249 C 0.80190 0.74091 0.18630
 C1250 C 0.80543 0.73328 0.15258
 H1251 H 0.87578 0.71737 0.04284
 H1252 H 0.93236 0.73422 0.12104
 H1253 H 0.90901 0.71637 0.02063
 H1254 H 0.91020 0.74110 0.16900
 H1255 H 0.87779 0.74383 0.19358
 H1256 H 0.84763 0.71663 0.06527
 H1257 H 0.81519 0.71975 0.08964
 H1258 H 0.84930 0.74953 0.21203
 H1259 H 0.81598 0.75255 0.23314
 H1260 H 0.79291 0.72897 0.13618
 C1261 C 0.41087 0.25067 0.66637
 C1262 C 0.39218 0.24468 0.65246
 C1263 C 0.39192 0.23692 0.61778
 C1264 C 0.40961 0.23544 0.59813
 C1265 C 0.42791 0.24160 0.61228
 C1266 C 0.42833 0.24915 0.64656
 C1267 C 0.37402 0.23073 0.60271
 C1268 C 0.35620 0.23208 0.62114
 C1269 C 0.35552 0.23978 0.65567
 C1270 C 0.37382 0.24618 0.67162
 C1271 C 0.37312 0.25398 0.70608
 C1272 C 0.35528 0.25560 0.72432
 C1273 C 0.33736 0.24951 0.70919
 C1274 C 0.33714 0.24142 0.67475
 C1275 C 0.31844 0.23540 0.66090
 C1276 C 0.30088 0.23757 0.68030
 C1277 C 0.30124 0.24577 0.71414
 C1278 C 0.31960 0.25161 0.72844
 H1279 H 0.41264 0.25658 0.69247
 H1280 H 0.40908 0.22978 0.57145
 H1281 H 0.44232 0.25372 0.65837
 H1282 H 0.37374 0.22477 0.57622
 H1283 H 0.34316 0.22698 0.60730
 H1284 H 0.38616 0.25911 0.71990
 H1285 H 0.35553 0.26176 0.75066
 H1286 H 0.31674 0.22898 0.63515
 H1287 H 0.28692 0.23287 0.66855
 H1288 H 0.32011 0.25794 0.75465
 C1289 C 0.09552 0.25649 0.16298
 C1290 C 0.11340 0.26120 0.14482
 C1291 C 0.11169 0.26775 0.10949
 C1292 C 0.09294 0.26906 0.09317
 C1293 C 0.07547 0.26404 0.11141
 C1294 C 0.07697 0.25786 0.14646
 C1295 C 0.12870 0.27283 0.09040
 C1296 C 0.14750 0.27164 0.10548
 C1297 C 0.15014 0.26512 0.14048
 C1298 C 0.13281 0.25963 0.16039
 C1299 C 0.13549 0.25257 0.19505
 C1300 C 0.15433 0.25096 0.20988
 C1301 C 0.17131 0.25642 0.19103
 C1302 C 0.16954 0.26371 0.15615
 C1303 C 0.18733 0.26930 0.13854
 C1304 C 0.20592 0.26751 0.15480
 C1305 C 0.20753 0.26010 0.18910
 C1306 C 0.19010 0.25461 0.20704
 H1307 H 0.09523 0.25177 0.19001
 H1308 H 0.09200 0.27364 0.06588
 H1309 H 0.06368 0.25422 0.16136
 H1310 H 0.12747 0.27782 0.06337
 H1311 H 0.15973 0.27578 0.08864
 H1312 H 0.12330 0.24790 0.21156
 H1313 H 0.15560 0.24537 0.23653
 H1314 H 0.18751 0.27523 0.11225
 H1315 H 0.21912 0.27195 0.14031
 H1316 H 0.19112 0.24895 0.23370
 C1317 C 0.59146 0.73167 0.62649
 C1318 C 0.60601 0.74706 0.62705
 C1319 C 0.60278 0.76395 0.60524
 C1320 C 0.58527 0.76564 0.58522
 C1321 C 0.57098 0.75038 0.58539
 C1322 C 0.57432 0.73333 0.60583
 C1323 C 0.61707 0.77906 0.60333
 C1324 C 0.63481 0.77762 0.62195
 C1325 C 0.63878 0.76116 0.64409
 C1326 C 0.62375 0.74610 0.64793
 C1327 C 0.62679 0.73083 0.67300
 C1328 C 0.64414 0.72993 0.69288
 C1329 C 0.65942 0.74382 0.68795
 C1330 C 0.65714 0.75943 0.66303
 C1331 C 0.67355 0.77242 0.65760
 C1332 C 0.69120 0.77017 0.67659
 C1333 C 0.69310 0.75511 0.70191
 C1334 C 0.67709 0.74203 0.70760
 H1335 H 0.59307 0.71797 0.64108
 H1336 H 0.58290 0.77871 0.56885
 H1337 H 0.56348 0.72131 0.60611
 H1338 H 0.61462 0.79207 0.58690
 H1339 H 0.64494 0.79004 0.61917
 H1340 H 0.61573 0.71957 0.67861
 H1341 H 0.64573 0.71803 0.71202
 H1342 H 0.67347 0.78414 0.63819
 H1343 H 0.70344 0.78037 0.67150
 H1344 H 0.67858 0.73010 0.72672
   
