data_POSCAR
  _audit_creation_date              2014-09-24
  _audit_creation_method            'ToBaCCo'
  _symmetry_space_group_name_H-M    'P1'
  _symmetry_Int_Tables_number       1
  _symmetry_cell_setting            triclinic
  loop_
  _symmetry_equiv_pos_as_xyz
 x,y,z
_cell_length_a 40.4525
_cell_length_b 40.7309
_cell_length_c 40.4869
_cell_angle_alpha 89.975700
_cell_angle_beta 90.047900
_cell_angle_gamma 89.989500
loop_
  _atom_site_label
  _atom_site_type_symbol
  _atom_site_fract_x
  _atom_site_fract_y
  _atom_site_fract_z
N1 N 0.34084 1.34339 0.34456
 N2 N 0.35426 0.85466 0.85467
 N3 N 0.84095 1.34411 0.84354
 N4 N 0.84718 0.85071 0.35051
 N5 N 0.64904 0.64945 0.34785
 N6 N 0.64629 0.14269 0.85609
 N7 N 1.16349 0.66327 0.83347
 N8 N 1.14674 0.14414 0.35433
 N9 N 0.65337 1.34870 0.65077
 N10 N 0.65379 0.84856 1.15289
 N11 N 1.14753 1.35555 1.14698
 N12 N 1.14593 0.85604 0.64739
 N13 N 0.33684 0.66243 0.66637
 N14 N 0.35082 0.14903 1.15389
 N15 N 0.84749 0.65095 1.15484
 N16 N 0.85092 0.15009 0.65332
 N17 N 1.34091 0.34030 0.66230
 N18 N 1.34489 0.84287 1.15930
 N19 N 0.85107 0.35031 1.15384
 N20 N 0.85196 0.85140 0.65293
 N21 N 0.64582 0.64371 0.64580
 N22 N 0.66112 1.15667 1.15740
 N23 N 0.15301 0.64899 1.14982
 N24 N 0.16640 1.16348 0.66379
 N25 N 1.34446 0.65203 0.34749
 N26 N 1.34786 1.14845 0.85249
 N27 N 0.83330 0.66354 0.83724
 N28 N 0.83573 1.16254 0.33863
 N29 N 0.64673 0.35458 0.35361
 N30 N 0.66461 0.83534 0.83429
 N31 N 0.14643 0.35612 0.85430
 N32 N 0.14506 0.85717 0.35579
 O33 O 1.09193 1.03219 1.18088
 O34 O 1.12358 1.03204 1.22525
 C35 C 1.09930 1.04368 1.20908
 C36 C 1.08025 1.07163 1.22271
 C37 C 1.08991 1.08612 1.25262
 H38 H 1.11056 1.07604 1.26637
 O39 O 0.85489 0.96688 1.14389
 O40 O 0.81050 0.96760 1.17550
 C41 C 0.83893 0.95620 1.16872
 C42 C 0.85367 0.93007 1.18954
 C43 C 0.84001 0.92168 1.22035
 H44 H 0.81864 0.93497 1.22923
 O45 O 1.01157 1.16313 1.12335
 O46 O 1.00469 1.20142 1.16124
 C47 C 1.02058 1.18982 1.13680
 C48 C 1.05037 1.20709 1.12460
 C49 C 1.05891 1.23787 1.13745
 H50 H 1.04285 1.24900 1.15555
 O51 O 0.94694 0.83659 1.11355
 O52 O 0.94017 0.79830 1.15146
 C53 C 0.93370 0.80992 1.12301
 C54 C 0.91020 0.79276 1.10070
 C55 C 0.89708 0.76183 1.10893
 H56 H 0.90471 0.74995 1.13163
 O57 O 1.15858 1.11874 1.06127
 O58 O 1.19729 1.15639 1.06734
 C59 C 1.18392 1.12964 1.07625
 C60 C 1.19748 1.11117 1.10462
 C61 C 1.22835 1.11927 1.11829
 H62 H 1.24284 1.13890 1.10748
 O63 O 0.83229 0.88174 1.00517
 O64 O 0.79428 0.84346 0.99863
 C65 C 0.80403 0.86995 1.01202
 C66 C 0.78296 0.88652 1.03684
 C67 C 0.75298 0.87232 1.04706
 H68 H 0.74447 0.84982 1.03564
 O69 O 0.94121 1.11773 1.15793
 O70 O 0.93471 1.15546 1.19643
 C71 C 0.92597 1.12862 1.18307
 C72 C 0.89742 1.11010 1.19626
 C73 C 0.88250 1.11896 1.22630
 H74 H 0.89251 1.13918 1.24052
 O75 O 1.00397 0.88141 1.16806
 O76 O 0.99805 0.84306 1.20607
 C77 C 1.01135 0.86960 1.19615
 C78 C 1.03661 0.88623 1.21683
 C79 C 1.04609 0.87275 1.24739
 H80 H 1.03392 0.85088 1.25651
 O81 O 1.14393 0.96779 1.14433
 O82 O 1.17565 0.96751 1.18869
 C83 C 1.16856 0.95653 1.16019
 C84 C 1.18871 0.93001 1.14552
 C85 C 1.21891 0.92073 1.15983
 H86 H 1.22790 0.93401 1.18114
 O87 O 0.82010 1.03201 1.09125
 O88 O 0.77569 1.03296 1.12279
 C89 C 0.79227 1.04438 1.09871
 C90 C 0.77992 1.07352 1.08046
 C91 C 0.75312 1.09156 1.09310
 H92 H 0.74061 1.08317 1.11520
 O93 O 0.87918 1.16435 1.01049
 O94 O 0.84179 1.20321 1.00378
 C95 C 0.86605 1.19118 1.01963
 C96 C 0.87823 1.20794 1.04969
 C97 C 0.86505 1.23843 1.05891
 H98 H 0.84685 1.24996 1.04314
 O99 O 1.11185 0.83536 1.05356
 O100 O 1.14950 0.79678 1.06027
 C101 C 1.12121 0.80868 1.06687
 C102 C 1.09914 0.79181 1.09072
 C103 C 1.10782 0.76117 1.10417
 H104 H 1.13047 0.74929 1.09638
 O105 O 0.85657 1.03048 1.14359
 O106 O 0.81215 1.03095 1.17519
 C107 C 0.84085 1.04152 1.16834
 C108 C 0.85578 1.06743 1.18890
 C109 C 0.84106 1.07663 1.21884
 H110 H 0.81939 1.06361 1.22742
 O111 O 1.09168 0.96769 1.18105
 O112 O 1.12321 0.96739 1.22549
 C113 C 1.09885 0.95604 1.20926
 C114 C 1.07954 0.92822 1.22289
 C115 C 1.08893 0.91394 1.25302
 H116 H 1.10945 0.92413 1.26686
 O117 O 1.01058 0.83609 1.12411
 O118 O 1.00394 0.79758 1.16183
 C119 C 1.01963 0.80927 1.13734
 C120 C 1.04926 0.79202 1.12477
 C121 C 1.05825 0.76134 1.13776
 H122 H 1.04278 0.75005 1.15634
 O123 O 0.94778 1.16312 1.11309
 O124 O 0.94079 1.20113 1.15120
 C125 C 0.93443 1.18971 1.12268
 C126 C 0.91098 1.20709 1.10048
 C127 C 0.89736 1.23764 1.10935
 H128 H 0.90459 1.24908 1.13240
 O129 O 0.83575 1.11869 1.00404
 O130 O 0.79819 1.15759 0.99849
 C131 C 0.80801 1.13101 1.01181
 C132 C 0.78770 1.11562 1.03801
 C133 C 0.76076 1.13301 1.05099
 H134 H 0.75371 1.15619 1.04000
 O135 O 1.15709 0.88013 1.06010
 O136 O 1.19514 0.84187 1.06661
 C137 C 1.18206 0.86885 1.07538
 C138 C 1.19544 0.88712 1.10398
 C139 C 1.22572 0.87822 1.11846
 H140 H 1.23991 0.85814 1.10813
 O141 O 0.94010 0.88113 1.15898
 O142 O 0.93393 0.84320 1.19737
 C143 C 0.92492 0.86997 1.18406
 C144 C 0.89615 0.88815 1.19725
 C145 C 0.88245 0.88024 1.22812
 H146 H 0.89354 0.86098 1.24292
 O147 O 1.00486 1.11832 1.16771
 O148 O 0.99857 1.15647 1.20583
 C149 C 1.01205 1.13007 1.19587
 C150 C 1.03733 1.11357 1.21659
 C151 C 1.04702 1.12728 1.24695
 H152 H 1.03493 1.14925 1.25595
 O153 O 0.81886 0.96755 1.09095
 O154 O 0.77438 0.96819 1.12238
 C155 C 0.79043 0.95653 1.09812
 C156 C 0.77654 0.92885 1.07908
 C157 C 0.74698 0.91405 1.08925
 H158 H 0.73348 0.92398 1.11009
 O159 O 1.14507 1.03161 1.14527
 O160 O 1.17683 1.03112 1.18958
 C161 C 1.16996 1.04235 1.16114
 C162 C 1.19058 1.06857 1.14643
 C163 C 1.22130 1.07722 1.16016
 H164 H 1.23046 1.06387 1.18140
 O165 O 0.87737 0.83729 1.01215
 O166 O 0.83955 0.79893 1.00507
 C167 C 0.86407 0.81045 1.02093
 C168 C 0.87661 0.79299 1.05046
 C169 C 0.86395 0.76208 1.05897
 H170 H 0.84568 0.75082 1.04312
 O171 O 1.11330 1.16364 1.05443
 O172 O 1.15156 1.20158 1.06122
 C173 C 1.12300 1.19020 1.06772
 C174 C 1.10079 1.20741 1.09131
 C175 C 1.10897 1.23839 1.10452
 H176 H 1.13158 1.25042 1.09687
 Cu177 Cu 1.11494 0.99990 1.15848
 Cu178 Cu 1.15275 0.99945 1.21192
 Cu179 Cu 0.84198 0.99906 1.11414
 Cu180 Cu 0.78844 0.99996 1.15184
 Cu181 Cu 0.97679 1.13677 1.13667
 Cu182 Cu 0.96888 1.18247 1.18247
 Cu183 Cu 0.97585 0.86263 1.13737
 Cu184 Cu 0.96828 0.81670 1.18301
 C185 C 1.05383 1.08546 1.20489
 H186 H 1.04678 1.07492 1.18136
 C187 C 1.07346 1.11382 1.26489
 C188 C 0.88176 0.91325 1.17837
 H189 H 0.89214 0.91930 1.15447
 C190 C 0.85440 0.89687 1.23995
 C191 C 1.07125 1.19220 1.10136
 H192 H 1.06487 1.16823 1.09171
 C193 C 1.08798 1.25394 1.12750
 C194 C 0.89997 0.80795 1.07123
 H195 H 0.90952 0.83198 1.06489
 C196 C 0.87404 0.74620 1.08808
 C197 C 1.17903 1.08559 1.11862
 H198 H 1.15513 1.07940 1.10826
 C199 C 1.24047 1.10248 1.14608
 C200 C 0.79426 0.91509 1.05268
 H201 H 0.81757 0.92592 1.04531
 C202 C 0.73512 0.88582 1.07351
 C203 C 0.88407 1.08405 1.17796
 H204 H 0.89514 1.07731 1.15457
 C205 C 0.85420 1.10239 1.23768
 C206 C 1.05325 0.91425 1.20498
 H207 H 1.04641 0.92460 1.18129
 C208 C 1.07240 0.88636 1.26541
 C209 C 1.17732 0.91323 1.11751
 H210 H 1.15380 0.92002 1.10666
 C211 C 1.23764 0.89488 1.14643
 C212 C 0.79710 1.08575 1.05280
 H213 H 0.81846 1.07265 1.04352
 C214 C 0.74408 1.12175 1.07909
 C215 C 0.90141 1.19262 1.07043
 H216 H 0.91134 1.16888 1.06357
 C217 C 0.87452 1.25361 1.08856
 C218 C 1.06965 0.80689 1.10102
 H219 H 1.06298 0.83073 1.09118
 C220 C 1.08739 0.74565 1.12753
 O221 O 1.14469 0.96677 0.85714
 O222 O 1.18893 0.96724 0.82529
 C223 C 1.16028 0.95640 0.83196
 C224 C 1.14473 0.93126 0.81063
 C225 C 1.15552 0.92588 0.77808
 H226 H 1.17577 0.94035 0.76844
 O227 O 0.91047 1.03455 0.82107
 O228 O 0.87867 1.03496 0.77682
 C229 C 0.90316 1.04620 0.79294
 C230 C 0.92255 1.07381 0.77919
 C231 C 0.91297 1.08818 0.74923
 H232 H 0.89215 1.07822 0.73568
 O233 O 0.99153 1.16516 0.87822
 O234 O 0.99846 1.20345 0.84031
 C235 C 0.98257 1.19187 0.86475
 C236 C 0.95262 1.20885 0.87688
 C237 C 0.94302 1.23916 0.86341
 H238 H 0.95844 1.25062 0.84489
 O239 O 1.05213 0.83700 0.88849
 O240 O 1.05855 0.79917 0.85009
 C241 C 1.06522 0.81044 0.87862
 C242 C 1.08940 0.79322 0.90004
 C243 C 1.10605 0.76522 0.88852
 H244 H 1.10010 0.75523 0.86443
 O245 O 1.16717 0.87922 0.99659
 O246 O 1.20499 0.84070 1.00295
 C247 C 1.19527 0.86720 0.98949
 C248 C 1.21613 0.88353 0.96427
 C249 C 1.24641 0.86962 0.95447
 H250 H 1.25534 0.84756 0.96646
 O251 O 0.84334 1.11992 0.94018
 O252 O 0.80479 1.15781 0.93445
 C253 C 0.81785 1.13093 0.92552
 C254 C 0.80368 1.11210 0.89774
 C255 C 0.77100 1.11715 0.88701
 H256 H 0.75571 1.13523 0.89932
 O257 O 1.06151 1.11906 0.84429
 O258 O 1.06843 1.15682 0.80585
 C259 C 1.07696 1.12991 0.81929
 C260 C 1.10548 1.11125 0.80630
 C261 C 1.12057 1.12016 0.77640
 H262 H 1.11070 1.14050 0.76223
 O263 O 0.99632 0.88300 0.83368
 O264 O 1.00184 0.84475 0.79552
 C265 C 0.98913 0.87156 0.80540
 C266 C 0.96477 0.88886 0.78432
 C267 C 0.95553 0.87555 0.75368
 H268 H 0.96730 0.85332 0.74494
 O269 O 1.18081 1.02989 0.91117
 O270 O 1.22545 1.02994 0.87996
 C271 C 1.20914 1.04137 0.90422
 C272 C 1.22277 1.06920 0.92358
 C273 C 1.25290 1.08347 0.91419
 H274 H 1.26677 1.07324 0.89375
 O275 O 0.85819 0.97008 0.85697
 O276 O 0.82671 0.97004 0.81244
 C277 C 0.83362 0.95897 0.84095
 C278 C 0.81322 0.93259 0.85545
 C279 C 0.78370 0.92274 0.84015
 H280 H 0.77537 0.93536 0.81814
 O281 O 1.12403 1.16393 0.99069
 O282 O 1.16208 1.20213 0.99743
 C283 C 1.13756 1.19059 0.98164
 C284 C 1.12532 1.20792 0.95193
 C285 C 1.13801 1.23885 0.94355
 H286 H 1.15605 1.25010 0.95966
 O287 O 0.88773 0.83758 0.94852
 O288 O 0.84943 0.79973 0.94132
 C289 C 0.87790 0.81124 0.93489
 C290 C 0.89921 0.79453 0.91034
 C291 C 0.88779 0.76642 0.89378
 H292 H 0.86395 0.75604 0.90009
 O293 O 0.91019 0.97024 0.81994
 O294 O 0.87885 0.97050 0.77534
 C295 C 0.90315 0.95899 0.79154
 C296 C 0.92255 0.93138 0.77774
 C297 C 0.91334 0.91728 0.74747
 H298 H 0.89287 0.92750 0.73357
 O299 O 1.14492 1.03041 0.85834
 O300 O 1.18955 1.03053 0.82704
 C301 C 1.16105 1.04161 0.83391
 C302 C 1.14674 1.06816 0.81362
 C303 C 1.16172 1.07753 0.78382
 H304 H 1.18333 1.06442 0.77520
 O305 O 0.98849 0.83732 0.87718
 O306 O 0.99465 0.79900 0.83920
 C307 C 0.97891 0.81088 0.86357
 C308 C 0.94842 0.79453 0.87529
 C309 C 0.93622 0.76683 0.85865
 H310 H 0.95002 0.75646 0.83826
 O311 O 1.05512 1.16466 0.88866
 O312 O 1.06232 1.20281 0.85069
 C313 C 1.06858 1.19123 0.87918
 C314 C 1.09206 1.20829 0.90153
 C315 C 1.10510 1.23933 0.89350
 H316 H 1.09736 1.25140 0.87093
 O317 O 0.84327 0.88300 0.94180
 O318 O 0.80472 0.84529 0.93512
 C319 C 0.81828 0.87203 0.92634
 C320 C 0.80551 0.89026 0.89741
 C321 C 0.77592 0.88084 0.88195
 H322 H 0.76175 0.86055 0.89191
 O323 O 1.16710 1.11771 0.99765
 O324 O 1.20548 1.15573 1.00349
 C325 C 1.19539 1.12911 0.99043
 C326 C 1.21623 1.11191 0.96571
 C327 C 1.24676 1.12536 0.95619
 H328 H 1.25552 1.14764 0.96783
 O329 O 1.05990 0.88115 0.84272
 O330 O 1.06546 0.84354 0.80392
 C331 C 1.07471 0.87014 0.81735
 C332 C 1.10292 0.88869 0.80362
 C333 C 1.11408 0.88329 0.77121
 H334 H 1.10184 0.86516 0.75590
 O335 O 0.99801 1.12024 0.83398
 O336 O 1.00461 1.15833 0.79581
 C337 C 0.99099 1.13198 0.80576
 C338 C 0.96570 1.11552 0.78503
 C339 C 0.95591 1.12927 0.75468
 H340 H 0.96787 1.15133 0.74575
 O341 O 0.85688 1.03370 0.85627
 O342 O 0.82486 1.03338 0.81211
 C343 C 0.83168 1.04418 0.84070
 C344 C 0.81044 1.06932 0.85623
 C345 C 0.77768 1.07434 0.84582
 H346 H 0.76791 1.05963 0.82582
 O347 O 1.18074 0.96537 0.91009
 O348 O 1.22510 0.96524 0.87850
 C349 C 1.20885 0.95365 0.90267
 C350 C 1.22234 0.92555 0.92155
 C351 C 1.25216 0.91095 0.91180
 H352 H 1.26591 0.92109 0.89122
 O353 O 1.12200 0.83523 0.98976
 O354 O 1.15972 0.79665 0.99625
 C355 C 1.13542 0.80865 0.98038
 C356 C 1.12376 0.79243 0.94980
 C357 C 1.14048 0.76482 0.93753
 H358 H 1.16070 0.75425 0.95148
 O359 O 0.88978 1.16386 0.94672
 O360 O 0.85168 1.20201 0.94006
 C361 C 0.88014 1.19051 0.93353
 C362 C 0.90215 1.20789 0.91001
 C363 C 0.89285 1.23815 0.89612
 H364 H 0.86961 1.24928 0.90326
 Cu365 Cu 1.15839 0.99800 0.88743
 Cu366 Cu 1.21200 0.99820 0.84985
 Cu367 Cu 0.88717 1.00222 0.84298
 Cu368 Cu 0.84935 1.00228 0.78948
 Cu369 Cu 1.13682 1.13729 1.02559
 Cu370 Cu 1.18292 1.18278 1.03307
 Cu371 Cu 1.13571 0.86131 1.02453
 Cu372 Cu 1.18103 0.81504 1.03235
 Cu373 Cu 0.86591 1.13789 0.97563
 Cu374 Cu 0.82032 1.18403 0.96840
 Cu375 Cu 0.86399 0.86372 0.97754
 Cu376 Cu 0.81820 0.81797 0.96928
 Cu377 Cu 1.02602 1.13851 0.86514
 Cu378 Cu 1.03431 1.18419 0.81933
 Cu379 Cu 1.02379 0.86337 0.86442
 Cu380 Cu 1.03079 0.81765 0.81846
 C381 C 1.11831 0.91274 0.82297
 H382 H 1.10991 0.91680 0.84805
 C383 C 1.13992 0.90225 0.75793
 C384 C 0.94910 1.08750 0.79687
 H385 H 0.95611 1.07699 0.82044
 C386 C 0.92932 1.11586 0.73690
 C387 C 0.93225 1.19364 0.90042
 H388 H 0.93936 1.17007 0.91058
 C389 C 0.91317 1.25402 0.87288
 C390 C 1.09812 0.80637 0.93097
 H391 H 1.08578 0.82827 0.93982
 C392 C 1.13199 0.75136 0.90682
 C393 C 1.20453 0.91177 0.94790
 H394 H 1.18108 0.92246 0.95502
 C395 C 1.26436 0.88312 0.92806
 C396 C 0.82302 1.08809 0.88229
 H397 H 0.84829 1.08429 0.89034
 C398 C 0.75752 1.09785 0.86151
 C399 C 1.11854 1.08498 0.82453
 H400 H 1.10725 1.07814 0.84779
 C401 C 1.14877 1.10349 0.76505
 C402 C 0.94847 0.91711 0.79593
 H403 H 0.95511 0.92726 0.81976
 C404 C 0.92961 0.88942 0.73536
 C405 C 1.20461 1.08352 0.94952
 H406 H 1.18087 1.07325 0.95631
 C407 C 1.26496 1.11147 0.93022
 C408 C 0.82379 0.91639 0.88416
 H409 H 0.84684 0.92358 0.89573
 C410 C 0.76491 0.89685 0.85323
 C411 C 1.10216 1.19298 0.93098
 H412 H 1.09262 1.16892 0.93722
 C413 C 1.12796 1.25493 0.91454
 C414 C 0.92981 0.80815 0.90122
 H415 H 0.93859 0.83009 0.91352
 C416 C 0.90582 0.75289 0.86756
 O417 O 0.99738 0.38271 0.33361
 O418 O 1.00292 0.34454 0.29539
 C419 C 0.98988 0.37115 0.30547
 C420 C 0.96471 0.38803 0.28487
 C421 C 0.95527 0.37458 0.25433
 H422 H 0.96739 0.35265 0.24533
 O423 O 1.06095 0.61987 0.34299
 O424 O 1.06681 0.65788 0.30466
 C425 C 1.07582 0.63099 0.31770
 C426 C 1.10420 0.61261 0.30393
 C427 C 1.11771 0.62063 0.27296
 H428 H 1.10679 0.64019 0.25844
 O429 O 0.85492 0.46881 0.35632
 O430 O 0.82344 0.46909 0.31180
 C431 C 0.83006 0.45809 0.34041
 C432 C 0.80906 0.43236 0.35552
 C433 C 0.77660 0.42651 0.34449
 H434 H 0.76678 0.44105 0.32437
 O435 O 1.17994 0.53269 0.40927
 O436 O 1.22467 0.53316 0.37821
 C437 C 1.20804 0.54463 0.40227
 C438 C 1.22064 0.57343 0.42093
 C439 C 1.24780 0.59111 0.40867
 H440 H 1.26054 0.58251 0.38679
 O441 O 0.88813 0.33798 0.44739
 O442 O 0.85022 0.29976 0.44016
 C443 C 0.87869 0.31146 0.43392
 C444 C 0.90051 0.29463 0.40989
 C445 C 0.88961 0.26608 0.39383
 H446 H 0.86581 0.25558 0.40007
 O447 O 1.12143 0.66453 0.49139
 O448 O 1.15941 0.70273 0.49865
 C449 C 1.13497 0.69128 0.48264
 C450 C 1.12294 0.70864 0.45288
 C451 C 1.13546 0.73965 0.44468
 H452 H 1.15313 0.75102 0.46109
 O453 O 0.90835 0.53311 0.32125
 O454 O 0.87719 0.53344 0.27655
 C455 C 0.90126 0.54498 0.29313
 C456 C 0.91989 0.57370 0.28035
 C457 C 0.90764 0.59112 0.25300
 H458 H 0.88571 0.58244 0.24034
 O459 O 1.14470 0.46883 0.35550
 O460 O 1.18908 0.46940 0.32386
 C461 C 1.16050 0.45831 0.33052
 C462 C 1.14530 0.43268 0.30945
 C463 C 1.15633 0.42692 0.27703
 H464 H 1.17648 0.44148 0.26731
 O465 O 1.05414 0.33664 0.38732
 O466 O 1.06055 0.29848 0.34928
 C467 C 1.06719 0.30992 0.37774
 C468 C 1.09066 0.29265 0.40004
 C469 C 1.10388 0.26163 0.39202
 H470 H 1.09633 0.24956 0.36940
 O471 O 0.99053 0.66462 0.37853
 O472 O 0.99720 0.70334 0.34100
 C473 C 0.98136 0.69140 0.36528
 C474 C 0.95126 0.70825 0.37729
 C475 C 0.94210 0.73869 0.36391
 H476 H 0.95789 0.75014 0.34572
 O477 O 0.84152 0.61969 0.44000
 O478 O 0.80328 0.65780 0.43378
 C479 C 0.81635 0.63087 0.42495
 C480 C 0.80274 0.61247 0.39658
 C481 C 0.77187 0.62057 0.38293
 H482 H 0.75735 0.64017 0.39376
 O483 O 1.16556 0.38307 0.49632
 O484 O 1.20344 0.34463 0.50268
 C485 C 1.19358 0.37101 0.48910
 C486 C 1.21414 0.38636 0.46310
 C487 C 1.24143 0.36912 0.45069
 H488 H 1.24871 0.34627 0.46221
 O489 O 0.99691 0.61900 0.33527
 O490 O 1.00245 0.65771 0.29756
 C491 C 0.98899 0.63127 0.30756
 C492 C 0.96251 0.61585 0.28755
 C493 C 0.94953 0.63290 0.26036
 H494 H 0.96037 0.65606 0.25299
 O495 O 1.06117 0.38161 0.34215
 O496 O 1.06691 0.34389 0.30350
 C497 C 1.07598 0.37065 0.31677
 C498 C 1.10402 0.38945 0.30285
 C499 C 1.11541 0.38376 0.27056
 H500 H 1.10348 0.36526 0.25546
 O501 O 1.18073 0.46817 0.40843
 O502 O 1.22532 0.46795 0.37717
 C503 C 1.20885 0.45635 0.40123
 C504 C 1.22164 0.42771 0.41991
 C505 C 1.24871 0.40975 0.40770
 H506 H 1.26115 0.41783 0.38545
 O507 O 0.85488 0.53261 0.35627
 O508 O 0.82362 0.53260 0.31159
 C509 C 0.83026 0.54363 0.34016
 C510 C 0.80967 0.56990 0.35478
 C511 C 0.77894 0.57854 0.34105
 H512 H 0.76977 0.56518 0.31984
 O513 O 0.88741 0.66392 0.44667
 O514 O 0.84964 0.70234 0.43978
 C515 C 0.87805 0.69059 0.43335
 C516 C 0.90038 0.70769 0.40987
 C517 C 0.89158 0.73816 0.39604
 H518 H 0.86852 0.74969 0.40314
 O519 O 1.12217 0.33719 0.48925
 O520 O 1.16003 0.29886 0.49643
 C521 C 1.13568 0.31044 0.48040
 C522 C 1.12367 0.29308 0.45061
 C523 C 1.13656 0.26226 0.44226
 H524 H 1.15458 0.25117 0.45849
 O525 O 1.14491 0.53256 0.35579
 O526 O 1.18958 0.53286 0.32455
 C527 C 1.16095 0.54376 0.33125
 C528 C 1.14615 0.57005 0.31077
 C529 C 1.15964 0.57856 0.27997
 H530 H 1.18075 0.56506 0.27077
 O531 O 0.90851 0.46864 0.32104
 O532 O 0.87740 0.46858 0.27632
 C533 C 0.90169 0.45721 0.29269
 C534 C 0.92141 0.42971 0.27896
 C535 C 0.91213 0.41545 0.24882
 H536 H 0.89132 0.42531 0.23515
 O537 O 1.05432 0.66440 0.38889
 O538 O 1.06091 0.70273 0.35101
 C539 C 1.06736 0.69119 0.37947
 C540 C 1.09049 0.70859 0.40196
 C541 C 1.10333 0.73978 0.39408
 H542 H 1.09583 0.75175 0.37138
 O543 O 0.99030 0.33723 0.37722
 O544 O 0.99641 0.29893 0.33923
 C545 C 0.98071 0.31078 0.36366
 C546 C 0.95022 0.29439 0.37544
 C547 C 0.93843 0.26624 0.35924
 H548 H 0.95252 0.25560 0.33919
 O549 O 1.16481 0.61881 0.49730
 O550 O 1.20293 0.65700 0.50376
 C551 C 1.19276 0.63088 0.48983
 C552 C 1.21292 0.61563 0.46337
 C553 C 1.23994 0.63295 0.45036
 H554 H 1.24701 0.65625 0.46110
 O555 O 0.84172 0.38157 0.43989
 O556 O 0.80337 0.34356 0.43370
 C557 C 0.81651 0.37044 0.42484
 C558 C 0.80260 0.38917 0.39680
 C559 C 0.77031 0.38335 0.38540
 H560 H 0.75528 0.36481 0.39735
 Cu561 Cu 1.02544 0.36328 0.36398
 Cu562 Cu 1.03243 0.31757 0.31807
 Cu563 Cu 1.02545 0.63816 0.36530
 Cu564 Cu 1.03267 0.68420 0.31970
 Cu565 Cu 0.88479 0.50071 0.34315
 Cu566 Cu 0.84763 0.50081 0.28929
 Cu567 Cu 1.15820 0.50048 0.38543
 Cu568 Cu 1.21197 0.50082 0.34821
 C569 C 0.94788 0.41591 0.29682
 H570 H 0.95463 0.42618 0.32056
 C571 C 0.92877 0.38795 0.23645
 C572 C 1.11840 0.58710 0.32239
 H573 H 1.10823 0.58094 0.34635
 C574 C 1.14546 0.60374 0.26075
 C575 C 0.82162 0.41376 0.38181
 H576 H 0.84660 0.41816 0.39041
 C577 C 0.75679 0.40236 0.35972
 C578 C 1.20337 0.58582 0.44848
 H579 H 1.18186 0.57287 0.45762
 C580 C 1.25692 0.62128 0.42261
 C581 C 0.93112 0.30838 0.40085
 H582 H 0.93951 0.33067 0.41278
 C583 C 0.90808 0.25222 0.36812
 C584 C 1.10029 0.69346 0.43158
 H585 H 1.09090 0.66931 0.43771
 C586 C 1.12573 0.75563 0.41548
 C587 C 0.94754 0.58619 0.29744
 H588 H 0.95667 0.57343 0.31908
 C589 C 0.92170 0.62112 0.24353
 C590 C 1.11902 0.41401 0.32192
 H591 H 1.11046 0.41833 0.34689
 C592 C 1.14111 0.40283 0.25713
 C593 C 1.10057 0.30792 0.42956
 H594 H 1.09090 0.33192 0.43583
 C595 C 1.12676 0.24610 0.41320
 C596 C 0.93045 0.69308 0.40048
 H597 H 0.93726 0.66939 0.41056
 C598 C 0.91242 0.75393 0.37318
 C599 C 0.82120 0.58692 0.38256
 H600 H 0.84511 0.58072 0.39291
 C601 C 0.75975 0.60376 0.35515
 C602 C 1.20450 0.41580 0.44772
 H603 H 1.18290 0.42878 0.45664
 C604 C 1.25809 0.37996 0.42240
 O605 O 1.00304 0.38057 0.66847
 O606 O 0.99647 0.34213 0.70629
 C607 C 1.00986 0.36872 0.69672
 C608 C 1.03464 0.38540 0.71791
 C609 C 1.04481 0.37136 0.74804
 H610 H 1.03339 0.34889 0.75668
 O611 O 0.93939 0.61792 0.65749
 O612 O 0.93250 0.65572 0.69586
 C613 C 0.92400 0.62880 0.68251
 C614 C 0.89545 0.61023 0.69555
 C615 C 0.88041 0.61909 0.72549
 H616 H 0.89041 0.63928 0.73976
 O617 O 0.81865 0.53254 0.58959
 O618 O 0.77416 0.53261 0.62104
 C619 C 0.79052 0.54427 0.59695
 C620 C 0.77713 0.57252 0.57818
 C621 C 0.74726 0.58703 0.58793
 H622 H 0.73342 0.57670 0.60835
 O623 O 1.14060 0.46753 0.64679
 O624 O 1.17239 0.46744 0.69109
 C625 C 1.16540 0.45646 0.66258
 C626 C 1.18596 0.43032 0.64766
 C627 C 1.21600 0.42077 0.66224
 H628 H 1.22442 0.43337 0.68419
 O629 O 1.11090 0.33750 0.55282
 O630 O 1.14940 0.29979 0.55982
 C631 C 1.12084 0.31105 0.56621
 C632 C 1.09955 0.29394 0.59048
 C633 C 1.11110 0.26584 0.60699
 H634 H 1.13508 0.25570 0.60081
 O635 O 0.87671 0.66450 0.51029
 O636 O 0.83926 0.70330 0.50356
 C637 C 0.86359 0.69134 0.51937
 C638 C 0.87600 0.70820 0.54924
 C639 C 0.86347 0.73907 0.55816
 H640 H 0.84545 0.75081 0.54234
 O641 O 0.85421 0.46744 0.64157
 O642 O 0.80979 0.46766 0.67316
 C643 C 0.83825 0.45647 0.66624
 C644 C 0.85288 0.43018 0.68677
 C645 C 0.83848 0.42117 0.71701
 H646 H 0.81690 0.43427 0.72563
 O647 O 1.08904 0.53256 0.68308
 O648 O 1.12108 0.53297 0.72718
 C649 C 1.09703 0.54479 0.71083
 C650 C 1.07949 0.57430 0.72315
 C651 C 1.09343 0.59326 0.74866
 H652 H 1.11608 0.58520 0.76045
 O653 O 0.94682 0.33644 0.61248
 O654 O 0.93983 0.29796 0.65015
 C655 C 0.93343 0.30979 0.62179
 C656 C 0.90968 0.29289 0.59959
 C657 C 0.89606 0.26233 0.60830
 H658 H 0.90371 0.25052 0.63104
 O659 O 1.00941 0.66391 0.62326
 O660 O 1.00203 0.70239 0.66087
 C661 C 1.01814 0.69075 0.63663
 C662 C 1.04798 0.70800 0.62460
 C663 C 1.05650 0.73884 0.63737
 H664 H 1.04029 0.75013 0.65524
 O665 O 0.83193 0.38190 0.50335
 O666 O 0.79441 0.34308 0.49729
 C667 C 0.80384 0.36985 0.51036
 C668 C 0.78260 0.38650 0.53498
 C669 C 0.75257 0.37230 0.54502
 H670 H 0.74420 0.34973 0.53364
 O671 O 1.15577 0.61813 0.56118
 O672 O 1.19448 0.65566 0.56789
 C673 C 1.18099 0.62883 0.57647
 C674 C 1.19412 0.61016 0.60495
 C675 C 1.22419 0.61894 0.61989
 H676 H 1.23848 0.63911 0.60987
 O677 O 1.00314 0.61881 0.66727
 O678 O 0.99645 0.65734 0.70496
 C679 C 1.01041 0.63114 0.69515
 C680 C 1.03695 0.61627 0.71546
 C681 C 1.05102 0.63452 0.74126
 H682 H 1.04028 0.65796 0.74769
 O683 O 0.93966 0.38135 0.65717
 O684 O 0.93288 0.34322 0.69528
 C685 C 0.92407 0.37004 0.68188
 C686 C 0.89506 0.38807 0.69457
 C687 C 0.88053 0.37945 0.72481
 H688 H 0.89118 0.35980 0.73940
 O689 O 1.14080 0.53106 0.64590
 O690 O 1.17287 0.53072 0.69002
 C691 C 1.16585 0.54168 0.66150
 C692 C 1.18657 0.56756 0.64663
 C693 C 1.21656 0.57672 0.66140
 H694 H 1.22509 0.56375 0.68313
 O695 O 0.81782 0.46812 0.58900
 O696 O 0.77337 0.46812 0.62050
 C697 C 0.78950 0.45675 0.59615
 C698 C 0.77581 0.42902 0.57700
 C699 C 0.74617 0.41421 0.58696
 H700 H 0.73249 0.42420 0.60765
 O701 O 1.11124 0.66405 0.55506
 O702 O 1.14956 0.70184 0.56230
 C703 C 1.12096 0.69056 0.56851
 C704 C 1.09869 0.70792 0.59187
 C705 C 1.10689 0.73894 0.60497
 H706 H 1.12964 0.75082 0.59746
 O707 O 0.87647 0.33710 0.51084
 O708 O 0.83921 0.29821 0.50375
 C709 C 0.86342 0.31016 0.51974
 C710 C 0.87583 0.29302 0.54952
 C711 C 0.86268 0.26243 0.55857
 H712 H 0.84412 0.25114 0.54305
 O713 O 1.08786 0.46787 0.68297
 O714 O 1.11954 0.46796 0.72731
 C715 C 1.09523 0.45640 0.71117
 C716 C 1.07644 0.42829 0.72468
 C717 C 1.08654 0.41358 0.75430
 H718 H 1.10701 0.42393 0.76810
 O719 O 0.85482 0.53107 0.64224
 O720 O 0.81033 0.53103 0.67375
 C721 C 0.83898 0.54183 0.66705
 C722 C 0.85375 0.56769 0.68785
 C723 C 0.83887 0.57691 0.71773
 H724 H 0.81708 0.56397 0.72614
 O725 O 0.94574 0.66327 0.61252
 O726 O 0.93841 0.70128 0.65058
 C727 C 0.93228 0.68983 0.62204
 C728 C 0.90901 0.70727 0.59979
 C729 C 0.89606 0.73816 0.60839
 H730 H 0.90370 0.74971 0.63126
 O731 O 1.01047 0.33641 0.62342
 O732 O 1.00375 0.29789 0.66113
 C733 C 1.01972 0.30981 0.63691
 C734 C 1.05019 0.29345 0.62525
 C735 C 1.06249 0.26578 0.64190
 H736 H 1.04869 0.25532 0.66225
 O737 O 1.15605 0.38234 0.56025
 O738 O 1.19468 0.34462 0.56652
 C739 C 1.18106 0.37119 0.57562
 C740 C 1.19382 0.38890 0.60485
 C741 C 1.22387 0.37970 0.61964
 H742 H 1.23835 0.36003 0.60892
 O743 O 0.83238 0.61968 0.50356
 O744 O 0.79460 0.65830 0.49763
 C745 C 0.80434 0.63166 0.51086
 C746 C 0.78351 0.61505 0.53594
 C747 C 0.75317 0.62881 0.54574
 H748 H 0.74426 0.65098 0.53396
 Cu749 Cu 0.97559 0.36251 0.63659
 Cu750 Cu 0.96742 0.31636 0.68194
 Cu751 Cu 0.97485 0.63714 0.63628
 Cu752 Cu 0.96642 0.68297 0.68192
 Cu753 Cu 0.86337 0.36349 0.47590
 Cu754 Cu 0.81812 0.31717 0.46794
 Cu755 Cu 1.13479 0.36387 0.52417
 Cu756 Cu 1.18076 0.31820 0.53212
 Cu757 Cu 0.86334 0.63812 0.47558
 Cu758 Cu 0.81794 0.68436 0.46790
 Cu759 Cu 1.13441 0.63760 0.52586
 Cu760 Cu 1.18052 0.68302 0.53405
 Cu761 Cu 0.84079 0.49977 0.61232
 Cu762 Cu 0.78722 0.49986 0.65003
 Cu763 Cu 1.11118 0.49970 0.66038
 Cu764 Cu 1.14934 0.49970 0.71365
 C765 C 1.05034 0.41415 0.70671
 H766 H 1.04303 0.42491 0.68335
 C767 C 1.07099 0.38523 0.76611
 C768 C 0.88216 0.58425 0.67713
 H769 H 0.89336 0.57755 0.65379
 C770 C 0.85202 0.60262 0.73670
 C771 C 0.79507 0.58663 0.55206
 H772 H 0.81857 0.57604 0.54495
 C773 C 0.73515 0.61503 0.57192
 C774 C 1.17524 0.41439 0.61888
 H775 H 1.15190 0.42136 0.60776
 C776 C 1.23522 0.39548 0.64834
 C777 C 1.06880 0.30725 0.59944
 H778 H 1.05993 0.32918 0.58715
 C779 C 1.09304 0.25209 0.63309
 C780 C 0.89901 0.69266 0.57000
 H781 H 0.90847 0.66867 0.56339
 C782 C 0.87345 0.75436 0.58759
 C783 C 0.88123 0.41363 0.67589
 H784 H 0.89220 0.42021 0.65240
 C785 C 0.85226 0.39588 0.73628
 C786 C 1.05120 0.58604 0.70668
 H787 H 1.04098 0.57225 0.68621
 C788 C 1.07990 0.62384 0.75722
 C789 C 0.89956 0.30790 0.56998
 H790 H 0.90950 0.33167 0.56329
 C791 C 0.87271 0.24683 0.58782
 C792 C 1.06902 0.69290 0.60169
 H793 H 1.06266 0.66890 0.59209
 C794 C 1.08576 0.75473 0.62764
 C795 C 0.79375 0.41517 0.55080
 H796 H 0.81712 0.42599 0.54360
 C797 C 0.73448 0.38589 0.57126
 C798 C 1.17570 0.58418 0.61829
 H799 H 1.15228 0.57752 0.60717
 C800 C 1.23552 0.60242 0.64822
 O801 O 0.59291 1.03123 0.68226
 O802 O 0.62434 1.03130 0.72677
 C803 C 0.59999 1.04274 0.71051
 C804 C 0.58056 1.07049 0.72410
 C805 C 0.58996 1.08496 0.75410
 H806 H 0.61059 1.07496 0.76792
 O807 O 0.35543 0.96859 0.64647
 O808 O 0.31128 0.96859 0.67842
 C809 C 0.33996 0.95786 0.67155
 C810 C 0.35572 0.93252 0.69258
 C811 C 0.34490 0.92662 0.72505
 H812 H 0.32449 0.94078 0.73481
 O813 O 0.51102 1.16166 0.62499
 O814 O 0.50449 1.20046 0.66241
 C815 C 0.52018 1.18850 0.63807
 C816 C 0.54999 1.20547 0.62564
 C817 C 0.55911 1.23602 0.63875
 H818 H 0.54355 1.24738 0.65719
 O819 O 0.44710 0.83835 0.61361
 O820 O 0.44012 0.80040 0.65182
 C821 C 0.43358 0.81192 0.62339
 C822 C 0.40922 0.79497 0.60198
 C823 C 0.39284 0.76669 0.61329
 H824 H 0.39895 0.75648 0.63725
 O825 O 0.65891 1.11745 0.56095
 O826 O 0.69699 1.15570 0.56713
 C827 C 0.68407 1.12870 0.57597
 C828 C 0.69785 1.11046 0.60445
 C829 C 0.72873 1.11882 0.61797
 H830 H 0.74315 1.13833 0.60687
 O831 O 0.33255 0.88202 0.50531
 O832 O 0.29464 0.84353 0.49963
 C833 C 0.30453 0.87012 0.51285
 C834 C 0.28389 0.88661 0.53825
 C835 C 0.25351 0.87284 0.54789
 H836 H 0.24448 0.85093 0.53572
 O837 O 0.44054 1.11728 0.66064
 O838 O 0.43468 1.15550 0.69875
 C839 C 0.42557 1.12865 0.68574
 C840 C 0.39686 1.11069 0.69928
 C841 C 0.38318 1.11907 0.73002
 H842 H 0.39430 1.13846 0.74459
 O843 O 0.50497 0.88261 0.66811
 O844 O 0.49903 0.84364 0.70548
 C845 C 0.51274 0.87000 0.69574
 C846 C 0.53956 0.88461 0.71587
 C847 C 0.55304 0.86640 0.74200
 H848 H 0.54163 0.84340 0.74886
 O849 O 0.64602 0.96743 0.64627
 O850 O 0.67803 0.96776 0.69042
 C851 C 0.67093 0.95658 0.66201
 C852 C 0.69130 0.93027 0.64719
 C853 C 0.72199 0.92144 0.66083
 H854 H 0.73130 0.93470 0.68204
 O855 O 0.31901 1.03273 0.59389
 O856 O 0.27470 1.03316 0.62556
 C857 C 0.29109 1.04483 0.60145
 C858 C 0.27856 1.07391 0.58316
 C859 C 0.25246 1.09272 0.59623
 H860 H 0.24051 1.08497 0.61887
 O861 O 0.37824 1.16225 0.51152
 O862 O 0.34091 1.20118 0.50483
 C863 C 0.36522 1.18914 0.52065
 C864 C 0.37748 1.20590 0.55073
 C865 C 0.36367 1.23600 0.56044
 H866 H 0.34507 1.24733 0.54501
 O867 O 0.61317 0.83632 0.55502
 O868 O 0.65089 0.79783 0.56177
 C869 C 0.62248 0.80958 0.56823
 C870 C 0.59998 0.79249 0.59163
 C871 C 0.60784 0.76134 0.60459
 H872 H 0.63039 0.74919 0.59692
 O873 O 0.35499 1.03213 0.64661
 O874 O 0.31069 1.03189 0.67838
 C875 C 0.33921 1.04295 0.67147
 C876 C 0.35420 1.06898 0.69208
 C877 C 0.34047 1.07786 0.72267
 H878 H 0.31894 1.06489 0.73168
 O879 O 0.59369 0.96672 0.68268
 O880 O 0.62555 0.96624 0.72689
 C881 C 0.60138 0.95462 0.71056
 C882 C 0.58317 0.92557 0.72310
 C883 C 0.59658 0.90654 0.74888
 H884 H 0.61942 0.91412 0.76060
 O885 O 0.51095 0.83735 0.62409
 O886 O 0.50383 0.79852 0.66141
 C887 C 0.51975 0.81033 0.63711
 C888 C 0.54940 0.79292 0.62470
 C889 C 0.55765 0.76191 0.63727
 H890 H 0.54143 0.75068 0.65518
 O891 O 0.44727 1.16109 0.61428
 O892 O 0.44071 1.19954 0.65202
 C893 C 0.43408 1.18782 0.62365
 C894 C 0.41044 1.20503 0.60145
 C895 C 0.39608 1.23508 0.61081
 H896 H 0.40288 1.24617 0.63416
 O897 O 0.33389 1.11734 0.50531
 O898 O 0.29651 1.15635 0.49946
 C899 C 0.30622 1.12989 0.51306
 C900 C 0.28597 1.11505 0.53969
 C901 C 0.25948 1.13299 0.55284
 H902 H 0.25255 1.15592 0.54134
 O903 O 0.65900 0.88060 0.56187
 O904 O 0.69725 0.84248 0.56799
 C905 C 0.68417 0.86938 0.57689
 C906 C 0.69787 0.88771 0.60529
 C907 C 0.72874 0.87947 0.61885
 H908 H 0.74317 0.85984 0.60796
 O909 O 0.44080 0.88256 0.65981
 O910 O 0.43494 0.84467 0.69830
 C911 C 0.42599 0.87154 0.68519
 C912 C 0.39792 0.89019 0.69920
 C913 C 0.38669 0.88429 0.73151
 H914 H 0.39896 0.86599 0.74660
 O915 O 0.50445 1.11662 0.66921
 O916 O 0.49876 1.15531 0.70687
 C917 C 0.51199 1.12867 0.69715
 C918 C 0.53737 1.11224 0.71789
 C919 C 0.54687 1.12592 0.74833
 H920 H 0.53462 1.14778 0.75735
 O921 O 0.31938 0.96806 0.59347
 O922 O 0.27493 0.96781 0.62492
 C923 C 0.29122 0.95637 0.60064
 C924 C 0.27773 0.92842 0.58135
 C925 C 0.24781 0.91382 0.59087
 H926 H 0.23403 0.92380 0.61150
 O927 O 0.64587 1.03117 0.64634
 O928 O 0.67763 1.03138 0.69065
 C929 C 0.67065 1.04229 0.66208
 C930 C 0.69109 1.06846 0.64697
 C931 C 0.72185 1.07733 0.66046
 H932 H 0.73107 1.06425 0.68183
 O933 O 0.37658 0.83697 0.51214
 O934 O 0.33886 0.79838 0.50587
 C935 C 0.36316 0.81042 0.52165
 C936 C 0.37486 0.79425 0.55224
 C937 C 0.35841 0.76638 0.56432
 H938 H 0.33832 0.75569 0.55028
 O939 O 0.61280 1.16173 0.55484
 O940 O 0.65056 1.20015 0.56176
 C941 C 0.62224 1.18832 0.56829
 C942 C 0.60019 1.20527 0.59211
 C943 C 0.60899 1.23585 0.60568
 H944 H 0.63180 1.24758 0.59810
 Cu945 Cu 0.61638 0.99917 0.66004
 Cu946 Cu 0.65426 0.99930 0.71341
 Cu947 Cu 0.34151 1.00034 0.61684
 Cu948 Cu 0.28807 1.00016 0.65457
 Cu949 Cu 0.47622 1.13531 0.63848
 Cu950 Cu 0.46892 1.18159 0.68377
 Cu951 Cu 0.47632 0.86410 0.63757
 Cu952 Cu 0.46866 0.81797 0.68304
 C953 C 0.55412 1.08423 0.70618
 H954 H 0.54727 1.07374 0.68257
 C955 C 0.57331 1.11254 0.76635
 C956 C 0.38240 0.91442 0.68010
 H957 H 0.39083 0.91884 0.65510
 C958 C 0.36065 0.90287 0.74494
 C959 C 0.57047 1.19043 0.60210
 H960 H 0.56369 1.16667 0.59218
 C961 C 0.58845 1.25151 0.62886
 C962 C 0.40035 0.80832 0.57118
 H963 H 0.41250 0.83037 0.56247
 C964 C 0.36705 0.75272 0.59491
 C965 C 0.67947 1.08506 0.61890
 H966 H 0.65555 1.07869 0.60869
 C967 C 0.74096 1.10242 0.64597
 C968 C 0.29561 0.91468 0.55491
 H969 H 0.31917 0.92525 0.54797
 C970 C 0.23557 0.88617 0.57434
 C971 C 0.38241 1.08544 0.68074
 H972 H 0.39277 1.07905 0.65693
 C973 C 0.35496 1.10280 0.74193
 C974 C 0.55462 0.91434 0.70669
 H975 H 0.54482 0.92811 0.68599
 C976 C 0.58218 0.87645 0.75781
 C977 C 0.67957 0.91334 0.61940
 H978 H 0.65567 0.91968 0.60911
 C979 C 0.74099 0.89618 0.64663
 C980 C 0.29523 1.08537 0.55485
 H981 H 0.31618 1.07180 0.54531
 C982 C 0.24339 1.12275 0.58174
 C983 C 0.40111 1.19079 0.57119
 H984 H 0.41152 1.16736 0.56400
 C985 C 0.37272 1.25078 0.59042
 C986 C 0.57052 0.80788 0.60170
 H987 H 0.56439 0.83202 0.59225
 C988 C 0.58666 0.74573 0.62732
 O989 O 0.64593 0.96755 0.35792
 O990 O 0.69030 0.96731 0.32629
 C991 C 0.66174 0.95635 0.33323
 C992 C 0.64673 0.93006 0.31278
 C993 C 0.66041 0.92106 0.28216
 H994 H 0.68188 0.93407 0.27309
 O995 O 0.40870 1.03109 0.32152
 O996 O 0.37737 1.03127 0.27696
 C997 C 0.40172 1.04264 0.29326
 C998 C 0.42127 1.07038 0.27968
 C999 C 0.41192 1.08481 0.24962
 H1000 H 0.39126 1.07483 0.23583
 O1001 O 0.49012 1.16328 0.37862
 O1002 O 0.49652 1.20168 0.34073
 C1003 C 0.48091 1.18998 0.36528
 C1004 C 0.45109 1.20695 0.37769
 C1005 C 0.44170 1.23746 0.36455
 H1006 H 0.45716 1.24896 0.34609
 O1007 O 0.55395 0.83665 0.39012
 O1008 O 0.56046 0.79839 0.35217
 C1009 C 0.56714 0.80999 0.38053
 C1010 C 0.59084 0.79267 0.40242
 C1011 C 0.60402 0.76196 0.39353
 H1012 H 0.59619 0.75039 0.37074
 O1013 O 0.66786 0.88117 0.49826
 O1014 O 0.70574 0.84264 0.50405
 C1015 C 0.69596 0.86935 0.49094
 C1016 C 0.71681 0.88621 0.46598
 C1017 C 0.74703 0.87237 0.45596
 H1018 H 0.75574 0.84997 0.46745
 O1019 O 0.34222 1.11767 0.44127
 O1020 O 0.30389 1.15576 0.43539
 C1021 C 0.31689 1.12884 0.42643
 C1022 C 0.30286 1.11020 0.39838
 C1023 C 0.27047 1.11593 0.38714
 H1024 H 0.25532 1.13424 0.39928
 O1025 O 0.56049 1.11823 0.34384
 O1026 O 0.56663 1.15612 0.30542
 C1027 C 0.57563 1.12935 0.31874
 C1028 C 0.60434 1.11114 0.30553
 C1029 C 0.61910 1.12016 0.27547
 H1030 H 0.60885 1.14028 0.26125
 O1031 O 0.49630 0.88159 0.33600
 O1032 O 0.50221 0.84284 0.29844
 C1033 C 0.48868 0.86929 0.30821
 C1034 C 0.46240 0.88455 0.28779
 C1035 C 0.45013 0.86752 0.26031
 H1036 H 0.46181 0.84481 0.25288
 O1037 O 0.68218 1.03268 0.40959
 O1038 O 0.72647 1.03288 0.37787
 C1039 C 0.71009 1.04476 0.40183
 C1040 C 0.72265 1.07405 0.41971
 C1041 C 0.74872 1.09275 0.40638
 H1042 H 0.76066 1.08478 0.38383
 O1043 O 0.35502 0.96751 0.35727
 O1044 O 0.32308 0.96794 0.31305
 C1045 C 0.32987 0.95702 0.34165
 C1046 C 0.30867 0.93175 0.35710
 C1047 C 0.27604 0.92648 0.34641
 H1048 H 0.26634 0.94109 0.32629
 O1049 O 0.62304 1.16280 0.49096
 O1050 O 0.66028 1.20172 0.49803
 C1051 C 0.63602 1.18981 0.48209
 C1052 C 0.62364 1.20702 0.45229
 C1053 C 0.63654 1.23778 0.44358
 H1054 H 0.65463 1.24902 0.45960
 O1055 O 0.38718 0.83699 0.44843
 O1056 O 0.34931 0.79864 0.44191
 C1057 C 0.37778 0.81022 0.43537
 C1058 C 0.40015 0.79286 0.41204
 C1059 C 0.39147 0.76221 0.39847
 H1060 H 0.36839 0.75073 0.40560
 O1061 O 0.40780 0.96655 0.32116
 O1062 O 0.37617 0.96611 0.27679
 C1063 C 0.40037 0.95456 0.29318
 C1064 C 0.41906 0.92587 0.28040
 C1065 C 0.40702 0.90812 0.25310
 H1066 H 0.38484 0.91631 0.24054
 O1067 O 0.64486 1.03131 0.35793
 O1068 O 0.68910 1.03091 0.32609
 C1069 C 0.66062 1.04206 0.33306
 C1070 C 0.64596 1.06836 0.31261
 C1071 C 0.66056 1.07773 0.28262
 H1072 H 0.68206 1.06456 0.27391
 O1073 O 0.49000 0.83628 0.38004
 O1074 O 0.49665 0.79758 0.34254
 C1075 C 0.48088 0.80943 0.36691
 C1076 C 0.45095 0.79237 0.37924
 C1077 C 0.44192 0.76175 0.36617
 H1078 H 0.45778 0.75036 0.34803
 O1079 O 0.55381 1.16306 0.38904
 O1080 O 0.56035 1.20129 0.35104
 C1081 C 0.56695 1.18977 0.37950
 C1082 C 0.59048 1.20705 0.40175
 C1083 C 0.60377 1.23795 0.39340
 H1084 H 0.59622 1.24982 0.37066
 O1085 O 0.34112 0.88124 0.44151
 O1086 O 0.30268 0.84330 0.43563
 C1087 C 0.31578 0.87017 0.42666
 C1088 C 0.30181 0.88893 0.39867
 C1089 C 0.26928 0.88367 0.38762
 H1090 H 0.25400 0.86549 0.39981
 O1091 O 0.66736 1.11777 0.49698
 O1092 O 0.70468 1.15679 0.50306
 C1093 C 0.69503 1.13038 0.48935
 C1094 C 0.71528 1.11556 0.46275
 C1095 C 0.74167 1.13347 0.44934
 H1096 H 0.74852 1.15654 0.46059
 O1097 O 0.56040 0.88130 0.34447
 O1098 O 0.56633 0.84320 0.30626
 C1099 C 0.57540 0.87005 0.31933
 C1100 C 0.60411 0.88814 0.30577
 C1101 C 0.61784 0.87967 0.27503
 H1102 H 0.60676 0.86018 0.26057
 O1103 O 0.49666 1.11760 0.33499
 O1104 O 0.50253 1.15582 0.29684
 C1105 C 0.48930 1.12924 0.30683
 C1106 C 0.46416 1.11245 0.28605
 C1107 C 0.45461 1.12609 0.25560
 H1108 H 0.46656 1.14821 0.24681
 O1109 O 0.35535 1.03109 0.35696
 O1110 O 0.32362 1.03117 0.31260
 C1111 C 0.33044 1.04198 0.34123
 C1112 C 0.30949 1.06753 0.35663
 C1113 C 0.27698 1.07326 0.34577
 H1114 H 0.26721 1.05887 0.32553
 O1115 O 0.68125 0.96808 0.41147
 O1116 O 0.72570 0.96792 0.38001
 C1117 C 0.70951 0.95659 0.40441
 C1118 C 0.72316 0.92881 0.42372
 C1119 C 0.75297 0.91428 0.41392
 H1120 H 0.76664 0.92442 0.39328
 O1121 O 0.62399 0.83577 0.49142
 O1122 O 0.66154 0.79704 0.49801
 C1123 C 0.63714 0.80895 0.48229
 C1124 C 0.62461 0.79201 0.45248
 C1125 C 0.63737 0.76130 0.44330
 H1126 H 0.65576 0.74970 0.45880
 O1127 O 0.38824 1.16205 0.44770
 O1128 O 0.35031 1.20037 0.44105
 C1129 C 0.37871 1.18875 0.43451
 C1130 C 0.40075 1.20612 0.41099
 C1131 C 0.39163 1.23658 0.39738
 H1132 H 0.36852 1.24788 0.40469
 Cu1133 Cu 0.65921 0.99985 0.38748
 Cu1134 Cu 0.71260 0.99963 0.34970
 Cu1135 Cu 0.38495 0.99905 0.34357
 Cu1136 Cu 0.34730 0.99919 0.29003
 Cu1137 Cu 0.63670 1.13607 0.52554
 Cu1138 Cu 0.68191 1.18243 0.53332
 Cu1139 Cu 0.63716 0.86225 0.52620
 Cu1140 Cu 0.68264 0.81612 0.53371
 Cu1141 Cu 0.36448 1.13595 0.47675
 Cu1142 Cu 0.31913 1.18227 0.46937
 Cu1143 Cu 0.36321 0.86310 0.47716
 Cu1144 Cu 0.31764 0.81704 0.46995
 Cu1145 Cu 0.52484 1.13677 0.36548
 Cu1146 Cu 0.53222 1.18254 0.31967
 Cu1147 Cu 0.52480 0.86280 0.36650
 Cu1148 Cu 0.53217 0.81669 0.32104
 C1149 C 0.61854 0.91354 0.32420
 H1150 H 0.60817 0.92002 0.34799
 C1151 C 0.64599 0.89597 0.26297
 C1152 C 0.44757 1.08429 0.29771
 H1153 H 0.45438 1.07387 0.32137
 C1154 C 0.42830 1.11260 0.23750
 C1155 C 0.43069 1.19168 0.40117
 H1156 H 0.43767 1.16797 0.41108
 C1157 C 0.41203 1.25251 0.37424
 C1158 C 0.60113 0.80732 0.43209
 H1159 H 0.59147 0.83118 0.43892
 C1160 C 0.62712 0.74597 0.41395
 C1161 C 0.70527 0.91473 0.44994
 H1162 H 0.68175 0.92528 0.45705
 C1163 C 0.76495 0.88612 0.42969
 C1164 C 0.32200 1.08590 0.38307
 H1165 H 0.34705 1.08156 0.39152
 C1166 C 0.25703 1.09706 0.36130
 C1167 C 0.61777 1.08503 0.32371
 H1168 H 0.60673 1.07819 0.34708
 C1169 C 0.64726 1.10360 0.26382
 C1170 C 0.44686 0.91386 0.29758
 H1171 H 0.45570 0.92671 0.31928
 C1172 C 0.42190 0.87848 0.24350
 C1173 C 0.70607 1.08572 0.44794
 H1174 H 0.68522 1.07215 0.45770
 C1175 C 0.75780 1.12293 0.42055
 C1176 C 0.32113 0.91307 0.38335
 H1177 H 0.34629 0.91706 0.39164
 C1178 C 0.25590 0.90284 0.36195
 C1179 C 0.60044 1.19201 0.43142
 H1180 H 0.59076 1.16806 0.43789
 C1181 C 0.62674 1.25364 0.41432
 C1182 C 0.43012 0.80754 0.40240
 H1183 H 0.43681 0.83136 0.41224
 C1184 C 0.41229 0.74637 0.37559
 O1185 O 0.49759 0.37974 0.83374
 O1186 O 0.50352 0.34067 0.79651
 C1187 C 0.48995 0.36717 0.80608
 C1188 C 0.46352 0.38224 0.78573
 C1189 C 0.44985 0.36436 0.75944
 H1190 H 0.46047 0.34090 0.75276
 O1191 O 0.56023 0.61655 0.84090
 O1192 O 0.56610 0.65441 0.80238
 C1193 C 0.57503 0.62756 0.81551
 C1194 C 0.60300 0.60884 0.80147
 C1195 C 0.61415 0.61459 0.76912
 H1196 H 0.60194 0.63294 0.75404
 O1197 O 0.35693 0.46608 0.85396
 O1198 O 0.32470 0.46631 0.80997
 C1199 C 0.33162 0.45556 0.83860
 C1200 C 0.31030 0.43049 0.85438
 C1201 C 0.27768 0.42512 0.84359
 H1202 H 0.26809 0.43948 0.82323
 O1203 O 0.68103 0.53262 0.90742
 O1204 O 0.72540 0.53328 0.87585
 C1205 C 0.70883 0.54495 0.89983
 C1206 C 0.72110 0.57422 0.91797
 C1207 C 0.74708 0.59311 0.90479
 H1208 H 0.75899 0.58540 0.88213
 O1209 O 0.38801 0.33622 0.94678
 O1210 O 0.35004 0.29803 0.93980
 C1211 C 0.37856 0.30959 0.93349
 C1212 C 0.40093 0.29228 0.91021
 C1213 C 0.39232 0.26150 0.89702
 H1214 H 0.36936 0.24996 0.90442
 O1215 O 0.62191 0.66277 0.98981
 O1216 O 0.65971 0.70124 0.99643
 C1217 C 0.63548 0.68930 0.98045
 C1218 C 0.62424 0.70538 0.94965
 C1219 C 0.64107 0.73300 0.93753
 H1220 H 0.66097 0.74376 0.95179
 O1221 O 0.40938 0.53018 0.81713
 O1222 O 0.37769 0.53019 0.77280
 C1223 C 0.40166 0.54214 0.78918
 C1224 C 0.41946 0.57149 0.77670
 C1225 C 0.40580 0.59050 0.75099
 H1226 H 0.38311 0.58265 0.73915
 O1227 O 0.64599 0.46697 0.85571
 O1228 O 0.69046 0.46699 0.82420
 C1229 C 0.66199 0.45576 0.83117
 C1230 C 0.64730 0.42918 0.81093
 C1231 C 0.66089 0.42036 0.78023
 H1232 H 0.68209 0.43367 0.77098
 O1233 O 0.55475 0.33515 0.88848
 O1234 O 0.56162 0.29654 0.85096
 C1235 C 0.56799 0.30836 0.87929
 C1236 C 0.59136 0.29130 0.90176
 C1237 C 0.60416 0.26005 0.89404
 H1238 H 0.59635 0.24782 0.87160
 O1239 O 0.48979 0.66146 0.87620
 O1240 O 0.49692 0.70032 0.83892
 C1241 C 0.48099 0.68848 0.86318
 C1242 C 0.45139 0.70588 0.87567
 C1243 C 0.44301 0.73686 0.86310
 H1244 H 0.45904 0.74806 0.84499
 O1245 O 0.34378 0.61710 0.93946
 O1246 O 0.30539 0.65497 0.93280
 C1247 C 0.31877 0.62811 0.92405
 C1248 C 0.30572 0.60973 0.89527
 C1249 C 0.27586 0.61891 0.88011
 H1250 H 0.26173 0.63921 0.89009
 O1251 O 0.66688 0.38258 0.99686
 O1252 O 0.70463 0.34394 1.00278
 C1253 C 0.69477 0.37045 0.98935
 C1254 C 0.71524 0.38598 0.96333
 C1255 C 0.74254 0.36887 0.95080
 H1256 H 0.74980 0.34590 0.96210
 O1257 O 0.49624 0.61578 0.83257
 O1258 O 0.50209 0.65477 0.79520
 C1259 C 0.48862 0.62824 0.80484
 C1260 C 0.46226 0.61320 0.78445
 C1261 C 0.44868 0.63127 0.75828
 H1262 H 0.45983 0.65444 0.75161
 O1263 O 0.56151 0.37983 0.84289
 O1264 O 0.56767 0.34152 0.80493
 C1265 C 0.57660 0.36850 0.81787
 C1266 C 0.60517 0.38672 0.80423
 C1267 C 0.61877 0.37845 0.77341
 H1268 H 0.60779 0.35887 0.75899
 O1269 O 0.68173 0.46799 0.90868
 O1270 O 0.72632 0.46780 0.87743
 C1271 C 0.70994 0.45631 0.90164
 C1272 C 0.72283 0.42777 0.92048
 C1273 C 0.74993 0.40992 0.90823
 H1274 H 0.76240 0.41817 0.88605
 O1275 O 0.35809 0.52962 0.85476
 O1276 O 0.32622 0.52952 0.81049
 C1277 C 0.33331 0.54062 0.83896
 C1278 C 0.31299 0.56701 0.85358
 C1279 C 0.28322 0.57663 0.83862
 H1280 H 0.27463 0.56377 0.81687
 O1281 O 0.38835 0.66261 0.94609
 O1282 O 0.35040 0.70084 0.93910
 C1283 C 0.37886 0.68924 0.93272
 C1284 C 0.40116 0.70633 0.90919
 C1285 C 0.39314 0.73745 0.89624
 H1286 H 0.37064 0.74958 0.90409
 O1287 O 0.62386 0.33628 0.99041
 O1288 O 0.66152 0.29771 0.99740
 C1289 C 0.63710 0.30938 0.98158
 C1290 C 0.62465 0.29190 0.95209
 C1291 C 0.63710 0.26081 0.94405
 H1292 H 0.65508 0.24962 0.96027
 O1293 O 0.64513 0.53059 0.85446
 O1294 O 0.68932 0.53036 0.82255
 C1295 C 0.66059 0.54105 0.82924
 C1296 C 0.64486 0.56621 0.80804
 C1297 C 0.65564 0.57195 0.77553
 H1298 H 0.67594 0.55764 0.76575
 O1299 O 0.41041 0.46542 0.81841
 O1300 O 0.37838 0.46474 0.77433
 C1301 C 0.40274 0.45330 0.79059
 C1302 C 0.42097 0.42431 0.77802
 C1303 C 0.40779 0.40595 0.75176
 H1304 H 0.38542 0.41420 0.73959
 O1305 O 0.55345 0.66051 0.88729
 O1306 O 0.56050 0.69845 0.84909
 C1307 C 0.56688 0.68700 0.87760
 C1308 C 0.59089 0.70413 0.89924
 C1309 C 0.60761 0.73219 0.88789
 H1310 H 0.60201 0.74210 0.86368
 O1311 O 0.49093 0.33516 0.87825
 O1312 O 0.49779 0.29610 0.84116
 C1313 C 0.48184 0.30824 0.86528
 C1314 C 0.45178 0.29144 0.87753
 C1315 C 0.44278 0.26068 0.86479
 H1316 H 0.45864 0.24898 0.84682
 O1317 O 0.66591 0.61771 0.99595
 O1318 O 0.70368 0.65628 1.00216
 C1319 C 0.69372 0.63004 0.98833
 C1320 C 0.71380 0.61529 0.96152
 C1321 C 0.74013 0.63334 0.94819
 H1322 H 0.74706 0.65631 0.95962
 O1323 O 0.34212 0.38046 0.93968
 O1324 O 0.30355 0.34267 0.93361
 C1325 C 0.31683 0.36947 0.92467
 C1326 C 0.30310 0.38818 0.89649
 C1327 C 0.27063 0.38285 0.88530
 H1328 H 0.25526 0.36482 0.89761
 Cu1329 Cu 0.52586 0.36134 0.86466
 Cu1330 Cu 0.53349 0.31487 0.81960
 Cu1331 Cu 0.52455 0.63471 0.86310
 Cu1332 Cu 0.53221 0.68083 0.81761
 Cu1333 Cu 0.38708 0.49770 0.84030
 Cu1334 Cu 0.34896 0.49756 0.78708
 Cu1335 Cu 0.65916 0.49959 0.88481
 Cu1336 Cu 0.71271 0.49966 0.84728
 C1337 C 0.44900 0.41232 0.79481
 H1338 H 0.45873 0.42574 0.81576
 C1339 C 0.42145 0.37553 0.74305
 C1340 C 0.61838 0.58455 0.82056
 H1341 H 0.61002 0.58027 0.84561
 C1342 C 0.64000 0.59580 0.75564
 C1343 C 0.32257 0.41213 0.88099
 H1344 H 0.34768 0.41618 0.88940
 C1345 C 0.25740 0.40170 0.85932
 C1346 C 0.70451 0.58561 0.94636
 H1347 H 0.68367 0.57195 0.95602
 C1348 C 0.75610 0.62316 0.91922
 C1349 C 0.43088 0.30690 0.90047
 H1350 H 0.43755 0.33081 0.91010
 C1351 C 0.41321 0.24542 0.87446
 C1352 C 0.59907 0.69118 0.93040
 H1353 H 0.58665 0.66928 0.93914
 C1354 C 0.63310 0.74629 0.90660
 C1355 C 0.44770 0.58316 0.79334
 H1356 H 0.45762 0.56947 0.81405
 C1357 C 0.41976 0.62090 0.74229
 C1358 C 0.61942 0.41230 0.82257
 H1359 H 0.60912 0.41867 0.84641
 C1360 C 0.64662 0.39512 0.76116
 C1361 C 0.60160 0.30681 0.93103
 H1362 H 0.59224 0.33101 0.93703
 C1363 C 0.62695 0.24449 0.91522
 C1364 C 0.43052 0.69095 0.89890
 H1365 H 0.43674 0.66685 0.90835
 C1366 C 0.41410 0.75304 0.87330
 C1367 C 0.32390 0.58352 0.88200
 H1368 H 0.34713 0.57649 0.89331
 C1369 C 0.26449 0.60256 0.85171
 C1370 C 0.70560 0.41559 0.94816
 H1371 H 0.68395 0.42846 0.95710
 C1372 C 0.75923 0.37998 0.92264
 O1373 O 0.50429 0.37993 1.16695
 O1374 O 0.49818 0.34147 1.20483
 C1375 C 0.51161 0.36797 1.19501
 C1376 C 0.53696 0.38435 1.21578
 C1377 C 0.54676 0.37047 1.24606
 H1378 H 0.53477 0.34841 1.25498
 O1379 O 0.44010 0.61779 1.15772
 O1380 O 0.43383 0.65566 1.19614
 C1381 C 0.42497 0.62888 1.18284
 C1382 C 0.39666 0.61040 1.19632
 C1383 C 0.38413 0.61721 1.22793
 H1384 H 0.39559 0.63611 1.24288
 O1385 O 0.32036 0.53159 1.09026
 O1386 O 0.27592 0.53182 1.12176
 C1387 C 0.29215 0.54320 1.09744
 C1388 C 0.27853 0.57104 1.07819
 C1389 C 0.24872 0.58568 1.08796
 H1390 H 0.23512 0.57572 1.10872
 O1391 O 0.64488 0.46690 1.14548
 O1392 O 0.67642 0.46723 1.18997
 C1393 C 0.66972 0.45616 1.16145
 C1394 C 0.69052 0.43019 1.14664
 C1395 C 0.72121 0.42147 1.16043
 H1396 H 0.73018 0.43457 1.18188
 O1397 O 0.61277 0.33721 1.05398
 O1398 O 0.65093 0.29913 1.06075
 C1399 C 0.62239 0.31054 1.06713
 C1400 C 0.60027 0.29295 1.09039
 C1401 C 0.60950 0.26254 1.10401
 H1402 H 0.63278 0.25147 1.09691
 O1403 O 0.37814 0.66280 1.00977
 O1404 O 0.34030 0.70121 1.00298
 C1405 C 0.36480 0.68955 1.01880
 C1406 C 0.37720 0.70660 1.04868
 C1407 C 0.36410 0.73715 1.05803
 H1408 H 0.34563 0.74869 1.04257
 O1409 O 0.35634 0.46747 1.14313
 O1410 O 0.31180 0.46752 1.17456
 C1411 C 0.34035 0.45647 1.16776
 C1412 C 0.35496 0.43018 1.18828
 C1413 C 0.34056 0.42114 1.21847
 H1414 H 0.31913 0.43442 1.22718
 O1415 O 0.59113 0.53052 1.18097
 O1416 O 0.62260 0.53101 1.22546
 C1417 C 0.59818 0.54220 1.20919
 C1418 C 0.57862 0.56988 1.22273
 C1419 C 0.58794 0.58440 1.25274
 H1420 H 0.60861 0.57450 1.26659
 O1421 O 0.44684 0.33576 1.11218
 O1422 O 0.44013 0.29741 1.15003
 C1423 C 0.43351 0.30914 1.12168
 C1424 C 0.40973 0.29206 1.09963
 C1425 C 0.39626 0.26145 1.10845
 H1426 H 0.40392 0.24980 1.13128
 O1427 O 0.51086 0.66249 1.12337
 O1428 O 0.50399 0.70096 1.16107
 C1429 C 0.51990 0.68921 1.13679
 C1430 C 0.54983 0.70622 1.12478
 C1431 C 0.55927 0.73636 1.13858
 H1432 H 0.54383 0.74739 1.15733
 O1433 O 0.33296 0.38078 1.00344
 O1434 O 0.29510 0.34226 0.99762
 C1435 C 0.30493 0.36886 1.01085
 C1436 C 0.28425 0.38540 1.03612
 C1437 C 0.25398 0.37159 1.04608
 H1438 H 0.24497 0.34950 1.03422
 O1439 O 0.65709 0.61750 1.05988
 O1440 O 0.69557 0.65536 1.06611
 C1441 C 0.68234 0.62849 1.07490
 C1442 C 0.69602 0.60983 1.10306
 C1443 C 0.72782 0.61642 1.11531
 H1444 H 0.74281 0.63522 1.10371
 O1445 O 0.50377 0.61684 1.16691
 O1446 O 0.49766 0.65522 1.20485
 C1447 C 0.51089 0.62859 1.19508
 C1448 C 0.53579 0.61186 1.21610
 C1449 C 0.54525 0.62565 1.24650
 H1450 H 0.53329 0.64782 1.25512
 O1451 O 0.44057 0.38044 1.15746
 O1452 O 0.43420 0.34241 1.19571
 C1453 C 0.42535 0.36928 1.18248
 C1454 C 0.39669 0.38756 1.19564
 C1455 C 0.38213 0.37885 1.22588
 H1456 H 0.39253 0.35892 1.24027
 O1457 O 0.64360 0.53051 1.14440
 O1458 O 0.67545 0.53063 1.18868
 C1459 C 0.66847 0.54145 1.16007
 C1460 C 0.68922 0.56713 1.14477
 C1461 C 0.72112 0.57381 1.15666
 H1462 H 0.73054 0.55993 1.17743
 O1463 O 0.32006 0.46711 1.09057
 O1464 O 0.27548 0.46720 1.12188
 C1465 C 0.29179 0.45560 1.09774
 C1466 C 0.27821 0.42760 1.07874
 C1467 C 0.24841 0.41303 1.08861
 H1468 H 0.23474 0.42318 1.10923
 O1469 O 0.61204 0.66273 1.05375
 O1470 O 0.65013 0.70085 1.06049
 C1471 C 0.62176 0.68926 1.06715
 C1472 C 0.59997 0.70625 1.09118
 C1473 C 0.60912 0.73646 1.10542
 H1474 H 0.63206 0.74809 1.09810
 O1475 O 0.37697 0.33554 1.01038
 O1476 O 0.33941 0.29689 1.00357
 C1477 C 0.36375 0.30872 1.01945
 C1478 C 0.37611 0.29170 1.04937
 C1479 C 0.36310 0.26108 1.05855
 H1480 H 0.34469 0.24962 1.04298
 O1481 O 0.59143 0.46608 1.18048
 O1482 O 0.62284 0.46625 1.22502
 C1483 C 0.59870 0.45453 1.20868
 C1484 C 0.57973 0.42643 1.22212
 C1485 C 0.58946 0.41178 1.25192
 H1486 H 0.61007 0.42187 1.26571
 O1487 O 0.35589 0.53117 1.14358
 O1488 O 0.31151 0.53093 1.17524
 C1489 C 0.34008 0.54190 1.16846
 C1490 C 0.35513 0.56762 1.18936
 C1491 C 0.34286 0.57453 1.22106
 H1492 H 0.32200 0.56069 1.23027
 O1493 O 0.44731 0.66184 1.11181
 O1494 O 0.44039 0.69998 1.14981
 C1495 C 0.43404 0.68847 1.12130
 C1496 C 0.41061 0.70582 1.09908
 C1497 C 0.39705 0.73629 1.10809
 H1498 H 0.40442 0.74759 1.13117
 O1499 O 0.51057 0.33523 1.12239
 O1500 O 0.50402 0.29662 1.16003
 C1501 C 0.51970 0.30845 1.13559
 C1502 C 0.54962 0.29163 1.12322
 C1503 C 0.55912 0.26117 1.13636
 H1504 H 0.54362 0.24951 1.15468
 O1505 O 0.65904 0.38125 1.06077
 O1506 O 0.69748 0.34331 1.06682
 C1507 C 0.68428 0.37010 1.07576
 C1508 C 0.69781 0.38827 1.10430
 C1509 C 0.72863 0.38004 1.11802
 H1510 H 0.74323 0.36059 1.10703
 O1511 O 0.33370 0.61787 1.00308
 O1512 O 0.29560 0.65609 0.99671
 C1513 C 0.30550 0.62964 1.01019
 C1514 C 0.28471 0.61310 1.03541
 C1515 C 0.25450 0.62705 1.04535
 H1516 H 0.24575 0.64928 1.03357
 Cu1517 Cu 0.47605 0.36167 1.13593
 Cu1518 Cu 0.46836 0.31560 1.18144
 Cu1519 Cu 0.47598 0.63593 1.13609
 Cu1520 Cu 0.46820 0.68184 1.18174
 Cu1521 Cu 0.36383 0.36206 0.97551
 Cu1522 Cu 0.31826 0.31609 0.96783
 Cu1523 Cu 0.63676 0.36316 1.02513
 Cu1524 Cu 0.68250 0.31724 1.03271
 Cu1525 Cu 0.36482 0.63631 0.97510
 Cu1526 Cu 0.31910 0.68210 0.96710
 Cu1527 Cu 0.63532 0.63639 1.02453
 Cu1528 Cu 0.68106 0.68229 1.03216
 Cu1529 Cu 0.34258 0.49939 1.11367
 Cu1530 Cu 0.28895 0.49941 1.15123
 Cu1531 Cu 0.61455 0.49847 1.15844
 Cu1532 Cu 0.65218 0.49892 1.21203
 C1533 C 0.55336 0.41261 1.20422
 H1534 H 0.54624 0.42329 1.18076
 C1535 C 0.57318 0.38393 1.26403
 C1536 C 0.38216 0.58548 1.17740
 H1537 H 0.39160 0.58035 1.15290
 C1538 C 0.35759 0.59900 1.24078
 C1539 C 0.29631 0.58481 1.05175
 H1540 H 0.31977 0.57414 1.04463
 C1541 C 0.23662 0.61361 1.07184
 C1542 C 0.67921 0.41355 1.11855
 H1543 H 0.65534 0.41980 1.10815
 C1544 C 0.74055 0.39647 1.14611
 C1545 C 0.57011 0.30712 1.09996
 H1546 H 0.56305 0.33082 1.09006
 C1547 C 0.58901 0.24642 1.12692
 C1548 C 0.40072 0.69134 1.06916
 H1549 H 0.41061 0.66760 1.06227
 C1550 C 0.37389 0.75221 1.08769
 C1551 C 0.38310 0.41342 1.17722
 H1552 H 0.39401 0.42004 1.15371
 C1553 C 0.35404 0.39551 1.23752
 C1554 C 0.55235 0.58367 1.20463
 H1555 H 0.54559 0.57316 1.18100
 C1556 C 0.57152 0.61224 1.26471
 C1557 C 0.39964 0.30683 1.06988
 H1558 H 0.40950 0.33061 1.06309
 C1559 C 0.37311 0.24566 1.08795
 C1560 C 0.57011 0.69153 1.10089
 H1561 H 0.56304 0.66807 1.09047
 C1562 C 0.58874 0.75182 1.12900
 C1563 C 0.29595 0.41369 1.05236
 H1564 H 0.31942 0.42430 1.04518
 C1565 C 0.23617 0.38516 1.07251
 C1566 C 0.67706 0.58503 1.11780
 H1567 H 0.65240 0.58003 1.10861
 C1568 C 0.74083 0.59809 1.14171
 C1569 C 1.11717 1.14192 1.33441
 C1570 C 1.08670 1.15479 1.34295
 C1571 C 1.06606 1.14667 1.31759
 C1572 C 1.08533 1.12915 1.29570
 O1573 O 1.11627 1.12631 1.30584
 H1574 H 1.07996 1.16780 1.36523
 H1575 H 1.03991 1.15200 1.31582
 C1576 C 1.13457 0.66283 0.81260
 C1577 C 1.11641 0.69027 0.80423
 C1578 C 1.09253 0.67924 0.78338
 C1579 C 1.09791 0.64581 0.78027
 O1580 O 1.12360 0.63591 0.79796
 H1581 H 1.12073 0.71551 0.81133
 H1582 H 1.07447 0.69436 0.77087
 C1583 C 0.61676 1.14050 0.83609
 C1584 C 0.58629 1.15346 0.84451
 C1585 C 0.56572 1.14540 0.81906
 C1586 C 0.58504 1.12784 0.79724
 O1587 O 0.61593 1.12492 0.80752
 H1588 H 0.57951 1.16651 0.86675
 H1589 H 0.53960 1.15082 0.81717
 C1590 C 0.61821 0.64506 1.33012
 C1591 C 0.58839 0.65976 1.33824
 C1592 C 0.56645 0.64933 1.31491
 C1593 C 0.58423 0.62867 1.29463
 O1594 O 0.61537 0.62581 1.30407
 H1595 H 0.58287 0.67596 1.35863
 H1596 H 0.54058 0.65585 1.31315
 C1597 C 0.83785 0.86853 1.32088
 C1598 C 0.80739 0.88293 1.31497
 C1599 C 0.80946 0.89589 1.28398
 C1600 C 0.84079 0.88824 1.27289
 O1601 O 0.85782 0.87139 1.29512
 H1602 H 0.78558 0.88327 1.33029
 H1603 H 0.78996 0.90854 1.27085
 C1604 C 0.83347 0.36433 0.81513
 C1605 C 0.80408 0.38103 0.81019
 C1606 C 0.80703 0.39552 0.78001
 C1607 C 0.83784 0.38642 0.76851
 O1608 O 0.85365 0.36728 0.78967
 H1609 H 0.78259 0.38203 0.82601
 H1610 H 0.78845 0.41026 0.76778
 C1611 C 0.34890 0.87731 0.82759
 C1612 C 0.33358 0.90754 0.83023
 C1613 C 0.33485 0.92082 0.79933
 C1614 C 0.35113 0.89799 0.78004
 O1615 O 0.35973 0.87164 0.79724
 H1616 H 0.32373 0.91925 0.85206
 H1617 H 0.32614 0.94492 0.79223
 C1618 C 0.33397 0.36367 1.31602
 C1619 C 0.30470 0.38043 1.31061
 C1620 C 0.30821 0.39501 1.28056
 C1621 C 0.33920 0.38590 1.26954
 O1622 O 0.35462 0.36664 1.29090
 H1623 H 0.28293 0.38142 1.32603
 H1624 H 0.28985 0.40979 1.26807
 C1625 C 0.88187 1.14666 0.67107
 C1626 C 0.91152 1.16142 0.66235
 C1627 C 0.93369 1.15203 0.68593
 C1628 C 0.91622 1.13182 0.70691
 O1629 O 0.88508 1.12833 0.69772
 H1630 H 0.91681 1.17690 0.64133
 H1631 H 0.95952 1.15876 0.68731
 C1632 C 0.87218 0.65411 0.18042
 C1633 C 0.88453 0.68353 0.19219
 C1634 C 0.90619 0.67511 0.21653
 C1635 C 0.90517 0.64126 0.21811
 O1636 O 0.88449 0.62861 0.19634
 H1637 H 0.87766 0.70824 0.18528
 H1638 H 0.91962 0.69183 0.23237
 C1639 C 0.38163 1.14484 0.17172
 C1640 C 0.41146 1.15944 0.16348
 C1641 C 0.43338 1.14927 0.18696
 C1642 C 0.41558 1.12883 0.20745
 O1643 O 0.38445 1.12588 0.19801
 H1644 H 0.41701 1.17539 0.14288
 H1645 H 0.45925 1.15578 0.18865
 C1646 C 0.36596 0.66122 0.68690
 C1647 C 0.38455 0.68827 0.69553
 C1648 C 0.40816 0.67663 0.71635
 C1649 C 0.40221 0.64326 0.71920
 O1650 O 0.37642 0.63397 0.70136
 H1651 H 0.38061 0.71367 0.68881
 H1652 H 0.42634 0.69140 0.72909
 C1653 C 1.15132 0.87822 0.67482
 C1654 C 1.16637 0.90861 0.67259
 C1655 C 1.16522 0.92133 0.70371
 C1656 C 1.14926 0.89804 0.72272
 O1657 O 1.14075 0.87193 0.70514
 H1658 H 1.17594 0.92079 0.65089
 H1659 H 1.17377 0.94538 0.71115
 C1660 C 1.15300 0.37791 0.17427
 C1661 C 1.16829 0.40816 0.17188
 C1662 C 1.16699 0.42120 0.20287
 C1663 C 1.15072 0.39820 0.22199
 O1664 O 1.14217 0.37199 0.20459
 H1665 H 1.17812 0.42008 0.15014
 H1666 H 1.17566 0.44526 0.21012
 C1667 C 0.66301 0.86635 0.18256
 C1668 C 0.69365 0.88021 0.18871
 C1669 C 0.69142 0.89354 0.21951
 C1670 C 0.65981 0.88664 0.23029
 O1671 O 0.64274 0.86986 0.20802
 H1672 H 0.71563 0.87991 0.17362
 H1673 H 0.71100 0.90595 0.23276
 C1674 C 0.66288 0.36632 0.68041
 C1675 C 0.69359 0.38013 0.68638
 C1676 C 0.69166 0.39318 0.71733
 C1677 C 0.66015 0.38613 0.72832
 O1678 O 0.64288 0.36958 0.70609
 H1679 H 0.71544 0.37996 0.67109
 H1680 H 0.71134 0.40548 0.73052
 C1681 C 1.32097 1.13161 1.16318
 C1682 C 1.31442 1.11846 1.19404
 C1683 C 1.28356 1.10523 1.19175
 C1684 C 1.27316 1.11158 1.15992
 O1685 O 1.29567 1.12785 1.14274
 H1686 H 1.32924 1.11921 1.21621
 H1687 H 1.26996 1.09335 1.21141
 C1688 C 1.31039 0.63933 0.67192
 C1689 C 1.30389 0.62409 0.70170
 C1690 C 1.27538 0.60695 0.69670
 C1691 C 1.26653 0.61314 0.66429
 O1692 O 1.28787 0.63262 0.64931
 H1693 H 1.31732 0.62633 0.72471
 H1694 H 1.26199 0.59302 0.71509
 C1695 C 0.82139 1.13215 0.66267
 C1696 C 0.81528 1.11850 0.69341
 C1697 C 0.78451 1.10505 0.69126
 C1698 C 0.77370 1.11172 0.65963
 O1699 O 0.79590 1.12842 0.64244
 H1700 H 0.83030 1.11904 0.71544
 H1701 H 0.77127 1.09279 0.71092
 C1702 C 0.82162 0.62660 1.15771
 C1703 C 0.82435 0.59684 1.17397
 C1704 C 0.79421 0.58230 1.17077
 C1705 C 0.77522 0.60408 1.15278
 O1706 O 0.79185 0.63092 1.14483
 H1707 H 0.84558 0.58606 1.18593
 H1708 H 0.78744 0.55819 1.17970
 C1709 C 1.33417 0.85609 0.88416
 C1710 C 1.34267 0.84262 0.91439
 C1711 C 1.31713 0.85011 0.93503
 C1712 C 1.29518 0.86789 0.91603
 O1713 O 1.30546 0.87146 0.88524
 H1714 H 1.36505 0.82966 0.92100
 H1715 H 1.31532 0.84427 0.96104
 C1716 C 1.31780 0.34268 0.37166
 C1717 C 1.30730 0.31454 0.38750
 C1718 C 1.28460 0.32491 0.40993
 C1719 C 1.28269 0.35860 0.40601
 O1720 O 1.30283 0.36935 0.38271
 H1721 H 1.31384 0.28933 0.38236
 H1722 H 1.26990 0.30931 0.42578
 C1723 C 0.82987 0.85461 0.38161
 C1724 C 0.83900 0.84013 0.41127
 C1725 C 0.81581 0.84984 0.43365
 C1726 C 0.79463 0.86994 0.41626
 O1727 O 0.80331 0.87308 0.38496
 H1728 H 0.86006 0.82463 0.41646
 H1729 H 0.81480 0.84340 0.45955
 C1730 C 0.81834 0.34315 0.87097
 C1731 C 0.80814 0.31489 0.88678
 C1732 C 0.78577 0.32506 0.90962
 C1733 C 0.78373 0.35877 0.90594
 O1734 O 0.80349 0.36971 0.88241
 H1735 H 0.81466 0.28972 0.88135
 H1736 H 0.77132 0.30932 0.92557
 C1737 C 0.67088 0.85306 1.12175
 C1738 C 0.66168 0.83893 1.09196
 C1739 C 0.68458 0.84920 1.06956
 C1740 C 0.70568 0.86927 1.08704
 O1741 O 0.69721 0.87189 1.11846
 H1742 H 0.64074 0.82331 1.08670
 H1743 H 0.68546 0.84313 1.04356
 C1744 C 0.67042 0.35301 0.61959
 C1745 C 0.66155 0.33829 0.58999
 C1746 C 0.68438 0.34859 0.56752
 C1747 C 0.70510 0.36924 0.58479
 O1748 O 0.69646 0.37218 0.61612
 H1749 H 0.64092 0.32221 0.58492
 H1750 H 0.68548 0.34210 0.54163
 C1751 C 0.16593 0.85809 0.61790
 C1752 C 0.15742 0.84514 0.58746
 C1753 C 0.18284 0.85321 0.56689
 C1754 C 0.20473 0.87077 0.58614
 O1755 O 0.19454 0.87367 0.61702
 H1756 H 0.13512 0.83214 0.58069
 H1757 H 0.18463 0.84784 0.54078
 C1758 C 0.16710 0.35755 1.11718
 C1759 C 0.15813 0.34450 1.08691
 C1760 C 0.18331 0.35231 1.06595
 C1761 C 0.20552 0.36985 1.08483
 O1762 O 0.19576 0.37298 1.11584
 H1763 H 0.13567 0.33157 1.08049
 H1764 H 0.18474 0.34681 1.03985
 C1765 C 0.67393 1.12080 0.85066
 C1766 C 0.67195 1.09037 0.83573
 C1767 C 0.70325 1.07800 0.83677
 C1768 C 0.72211 1.10157 0.85253
 O1769 O 0.70426 1.12748 0.86106
 H1770 H 0.65030 1.07795 0.82627
 H1771 H 0.71091 1.05403 0.82822
 C1772 C 0.67899 0.63232 0.33839
 C1773 C 0.68557 0.61941 0.30744
 C1774 C 0.71656 0.60644 0.30958
 C1775 C 0.72699 0.61272 0.34141
 O1776 O 0.70439 0.62869 0.35873
 H1777 H 0.67064 0.62015 0.28534
 H1778 H 0.73020 0.59477 0.28984
 C1779 C 0.17406 1.12170 0.34933
 C1780 C 0.17163 1.09118 0.33461
 C1781 C 0.20266 1.07821 0.33606
 C1782 C 0.22182 1.10151 0.35183
 O1783 O 0.20442 1.12786 0.35998
 H1784 H 0.14984 1.07909 0.32506
 H1785 H 0.20993 1.05401 0.32781
 C1786 C 0.18983 0.64004 0.82790
 C1787 C 0.19623 0.62471 0.79815
 C1788 C 0.22466 0.60741 0.80316
 C1789 C 0.23358 0.61358 0.83556
 O1790 O 0.21235 0.63320 0.85050
 H1791 H 0.18277 0.62696 0.77516
 H1792 H 0.23794 0.59333 0.78481
 C1793 C 1.12257 1.33045 1.14972
 C1794 C 1.09317 1.33421 1.16643
 C1795 C 1.07621 1.30588 1.16089
 C1796 C 1.09650 1.28680 1.14107
 O1797 O 1.12467 1.30185 1.13433
 H1798 H 1.08459 1.35541 1.18004
 H1799 H 1.05159 1.30058 1.16975
 C1800 C 1.12071 0.83115 0.64979
 C1801 C 1.09132 0.83501 0.66652
 C1802 C 1.07422 0.80677 0.66095
 C1803 C 1.09440 0.78762 0.64110
 O1804 O 1.12266 0.80255 0.63437
 H1805 H 1.08289 0.85619 0.68025
 H1806 H 1.04961 0.80154 0.66987
 C1807 C 0.62645 1.32567 0.65245
 C1808 C 0.59598 1.33223 0.66614
 C1809 C 0.57747 1.30495 0.65989
 C1810 C 0.59805 1.28383 0.64270
 O1811 O 0.62778 1.29648 0.63829
 H1812 H 0.58776 1.35459 0.67796
 H1813 H 0.55171 1.30167 0.66614
 C1814 C 0.62697 0.82538 1.15436
 C1815 C 0.59646 0.83171 1.16806
 C1816 C 0.57793 0.80462 1.16117
 C1817 C 0.59850 0.78378 1.14362
 O1818 O 0.62828 0.79646 1.13959
 H1819 H 0.58817 0.85389 1.18018
 H1820 H 0.55211 0.80133 1.16720
 C1821 C 0.87029 1.32393 0.84469
 C1822 C 0.90022 1.33140 0.83009
 C1823 C 0.92080 1.30616 0.83849
 C1824 C 0.90200 1.28529 0.85780
 O1825 O 0.87157 1.29630 0.86169
 H1826 H 0.90683 1.35294 0.81595
 H1827 H 0.94655 1.30384 0.83173
 C1828 C 0.87418 0.82777 0.34890
 C1829 C 0.90474 0.83448 0.33547
 C1830 C 0.92336 0.80732 0.34197
 C1831 C 0.90276 0.78611 0.35903
 O1832 O 0.87291 0.79860 0.36311
 H1833 H 0.91294 0.85690 0.32373
 H1834 H 0.94921 0.80420 0.33600
 C1835 C 0.37001 1.32302 0.34614
 C1836 C 0.40026 1.33050 0.33225
 C1837 C 0.42053 1.30507 0.34076
 C1838 C 0.40123 1.28405 0.35943
 O1839 O 0.37078 1.29517 0.36285
 H1840 H 0.40725 1.35217 0.31850
 H1841 H 0.44640 1.30271 0.33452
 C1842 C 0.37941 0.82974 0.85187
 C1843 C 0.40883 0.83373 0.83524
 C1844 C 0.42586 0.80537 0.84050
 C1845 C 0.40559 0.78604 0.86008
 O1846 O 0.37736 0.80096 0.86694
 H1847 H 0.41736 0.85508 0.82182
 H1848 H 0.45049 0.80016 0.83162
 C1849 C 1.16578 0.68723 0.85971
 C1850 C 1.19466 0.69679 0.87535
 C1851 C 1.18550 0.72095 0.89671
 C1852 C 1.15191 0.72476 0.89220
 O1853 O 1.13996 0.70438 0.86984
 H1854 H 1.21969 0.68868 0.87085
 H1855 H 1.20175 0.73542 0.91216
 C1856 C 1.14923 0.16939 0.37915
 C1857 C 1.16604 0.16592 0.40854
 C1858 C 1.16039 0.19433 0.42527
 C1859 C 1.14040 0.21319 0.40489
 O1860 O 1.13366 0.19791 0.37685
 H1861 H 1.17984 0.14487 0.41724
 H1862 H 1.16934 0.19985 0.44980
 C1863 C 0.65013 0.67193 0.37526
 C1864 C 0.66372 0.66496 0.40570
 C1865 C 0.65756 0.69206 0.42450
 C1866 C 0.64054 0.71352 0.40411
 O1867 O 0.63610 0.70122 0.37423
 H1868 H 0.67557 0.64250 0.41366
 H1869 H 0.66388 0.69508 0.45027
 C1870 C 0.64864 0.16767 0.88116
 C1871 C 0.66533 0.16393 0.91060
 C1872 C 0.65987 0.19233 0.92743
 C1873 C 0.64015 0.21142 0.90703
 O1874 O 0.63335 0.19631 0.87891
 H1875 H 0.67901 0.14275 0.91918
 H1876 H 0.66881 0.19774 0.95199
 C1877 C 0.84792 0.67322 1.12705
 C1878 C 0.83231 0.66773 1.09721
 C1879 C 0.83993 0.69428 1.07815
 C1880 C 0.85985 0.71398 1.09766
 O1881 O 0.86489 0.70094 1.12709
 H1882 H 0.81772 0.64673 1.08981
 H1883 H 0.83208 0.69825 1.05294
 C1884 C 0.84924 0.17285 0.62617
 C1885 C 0.83557 0.16607 0.59572
 C1886 C 0.84174 0.19327 0.57705
 C1887 C 0.85885 0.21456 0.59752
 O1888 O 0.86328 0.20210 0.62731
 H1889 H 0.82383 0.14362 0.58761
 H1890 H 0.83551 0.19643 0.55127
 C1891 C 0.33419 0.68714 0.64082
 C1892 C 0.30512 0.69688 0.62562
 C1893 C 0.31391 0.72167 0.60484
 C1894 C 0.34749 0.72566 0.60920
 O1895 O 0.35980 0.70479 0.63095
 H1896 H 0.28020 0.68843 0.63005
 H1897 H 0.29743 0.73637 0.58983
 C1898 C 0.34967 0.17166 1.12655
 C1899 C 0.33605 0.16484 1.09609
 C1900 C 0.34232 0.19196 1.07735
 C1901 C 0.35944 0.21329 1.09776
 O1902 O 0.36382 0.20088 1.12762
 H1903 H 0.32416 0.14243 1.08806
 H1904 H 0.33604 0.19507 1.05157
 C1905 C 1.17222 1.14047 0.69025
 C1906 C 1.20216 1.12547 0.69683
 C1907 C 1.19728 1.10829 0.72533
 C1908 C 1.16480 1.11424 0.73409
 O1909 O 1.14966 1.13357 0.71272
 H1910 H 1.22518 1.12790 0.68347
 H1911 H 1.21575 1.09449 0.73879
 C1912 C 1.16227 0.63164 0.17973
 C1913 C 1.19290 0.61783 0.18610
 C1914 C 1.19072 0.60517 0.21718
 C1915 C 1.15916 0.61241 0.22788
 O1916 O 1.14207 0.62874 0.20532
 H1917 H 1.21489 0.61772 0.17102
 H1918 H 1.21030 0.59299 0.23065
 C1919 C 0.66788 1.13620 0.18581
 C1920 C 0.69717 1.11952 0.19129
 C1921 C 0.69349 1.10470 0.22120
 C1922 C 0.66237 1.11358 0.23204
 O1923 O 0.64704 1.13295 0.21073
 H1924 H 0.71904 1.11873 0.17598
 H1925 H 0.71182 1.08990 0.23373
 C1926 C 0.65132 0.62111 0.67288
 C1927 C 0.66658 0.59085 0.67023
 C1928 C 0.66550 0.57766 0.70117
 C1929 C 0.64938 0.60057 0.72050
 O1930 O 0.64072 0.62688 0.70329
 H1931 H 0.67626 0.57907 0.64837
 H1932 H 0.67422 0.55356 0.70829
 C1933 C 0.88289 0.85633 0.67023
 C1934 C 0.91280 0.84201 0.66183
 C1935 C 0.93482 0.85275 0.68493
 C1936 C 0.91694 0.87319 0.70535
 O1937 O 0.88570 0.87566 0.69623
 H1938 H 0.91827 0.82576 0.64146
 H1939 H 0.96076 0.84647 0.68653
 C1940 C 0.88200 0.35514 0.17121
 C1941 C 0.91203 0.34127 0.16245
 C1942 C 0.93405 0.35182 0.18563
 C1943 C 0.91606 0.37173 0.20647
 O1944 O 0.88474 0.37402 0.19753
 H1945 H 0.91763 0.32554 0.14170
 H1946 H 0.96009 0.34587 0.18695
 C1947 C 0.37198 0.84196 0.18245
 C1948 C 0.38806 0.81378 0.19251
 C1949 C 0.41018 0.82388 0.21568
 C1950 C 0.40588 0.85747 0.21830
 O1951 O 0.38263 0.86841 0.19813
 H1952 H 0.38324 0.78865 0.18544
 H1953 H 0.42606 0.80811 0.23019
 C1954 C 0.36795 0.33891 0.68543
 C1955 C 0.38267 0.31037 0.69649
 C1956 C 0.40604 0.32031 0.71851
 C1957 C 0.40370 0.35417 0.71945
 O1958 O 0.38051 0.36543 0.69940
 H1959 H 0.37631 0.28528 0.69055
 H1960 H 0.42156 0.30448 0.73335
 C1961 C 1.11564 0.85910 1.33561
 C1962 C 1.08519 0.84604 1.34395
 C1963 C 1.06473 0.85382 1.31833
 C1964 C 1.08406 0.87133 1.29648
 O1965 O 1.11488 0.87448 1.30690
 H1966 H 1.07835 0.83311 1.36626
 H1967 H 1.03865 0.84826 1.31635
 C1968 C 1.11645 0.35788 0.83485
 C1969 C 1.08636 0.34434 0.84382
 C1970 C 1.06517 0.35190 0.81871
 C1971 C 1.08371 0.36982 0.79656
 O1972 O 1.11474 0.37339 0.80627
 H1973 H 1.08020 0.33123 0.86622
 H1974 H 1.03912 0.34603 0.81732
 C1975 C 0.63564 0.83635 0.81355
 C1976 C 0.61709 0.80925 0.80495
 C1977 C 0.59354 0.82079 0.78399
 C1978 C 0.59951 0.85414 0.78105
 O1979 O 0.62522 0.86351 0.79894
 H1980 H 0.62101 0.78388 0.81185
 H1981 H 0.57538 0.80603 0.77121
 C1982 C 0.61714 0.35632 1.33362
 C1983 C 0.58676 0.34327 1.34224
 C1984 C 0.56606 0.35105 1.31680
 C1985 C 0.58519 0.36858 1.29480
 O1986 O 0.61611 0.37171 1.30493
 H1987 H 0.58007 0.33044 1.36465
 H1988 H 0.53994 0.34558 1.31509
 C1989 C 0.83025 1.13926 1.31237
 C1990 C 0.80036 1.12430 1.30557
 C1991 C 0.80547 1.10715 1.27712
 C1992 C 0.83803 1.11307 1.26859
 O1993 O 0.85300 1.13235 1.29008
 H1994 H 0.77722 1.12681 1.31869
 H1995 H 0.78704 1.09347 1.26350
 C1996 C 0.82791 0.64016 0.81104
 C1997 C 0.79822 0.62468 0.80458
 C1998 C 0.80341 0.60722 0.77634
 C1999 C 0.83582 0.61350 0.76754
 O2000 O 0.85063 0.63330 0.78870
 H2001 H 0.77512 0.62695 0.81784
 H2002 H 0.78513 0.59303 0.76306
 C2003 C 0.33829 1.13144 0.82254
 C2004 C 0.30717 1.11892 0.81586
 C2005 C 0.30921 1.10604 0.78486
 C2006 C 0.34118 1.11194 0.77457
 O2007 O 0.35866 1.12764 0.79725
 H2008 H 0.28506 1.11990 0.83074
 H2009 H 0.28933 1.09465 0.77113
 C2010 C 0.34130 0.62784 1.32144
 C2011 C 0.32392 0.59865 1.32367
 C2012 C 0.32713 0.58411 1.29359
 C2013 C 0.34620 0.60529 1.27501
 O2014 O 0.35479 0.63180 1.29191
 H2015 H 0.31111 0.58819 1.34452
 H2016 H 0.31742 0.56037 1.28660
 C2017 C 1.14931 1.33138 0.87958
 C2018 C 1.16596 1.33558 0.90898
 C2019 C 1.16076 1.30729 0.92615
 C2020 C 1.14121 1.28785 0.90595
 O2021 O 1.13433 1.30259 0.87766
 H2022 H 1.17935 1.35701 0.91736
 H2023 H 1.16963 1.30221 0.95081
 C2024 C 1.14741 0.83232 0.38103
 C2025 C 1.16388 0.83628 0.41055
 C2026 C 1.15843 0.80796 0.42754
 C2027 C 1.13892 0.78868 0.40713
 O2028 O 1.13226 0.80360 0.37886
 H2029 H 1.17739 0.85757 0.41910
 H2030 H 1.16722 0.80272 0.45219
 C2031 C 0.64935 1.32972 0.37885
 C2032 C 0.66626 1.33361 0.40814
 C2033 C 0.66059 1.30549 0.42541
 C2034 C 0.64049 1.28636 0.40543
 O2035 O 0.63373 1.30119 0.37713
 H2036 H 0.68012 1.35478 0.41643
 H2037 H 0.66957 1.30034 0.45002
 C2038 C 0.66685 0.81108 0.86029
 C2039 C 0.69564 0.80166 0.87620
 C2040 C 0.68648 0.77720 0.89724
 C2041 C 0.65298 0.77311 0.89231
 O2042 O 0.64109 0.79359 0.86998
 H2043 H 0.72062 0.81012 0.87212
 H2044 H 0.70267 0.76277 0.91281
 C2045 C 0.85002 1.32744 1.12677
 C2046 C 0.83637 1.33398 1.09628
 C2047 C 0.84309 1.30691 1.07768
 C2048 C 0.86047 1.28586 1.09823
 O2049 O 0.86462 1.29843 1.12803
 H2050 H 0.82423 1.35621 1.08811
 H2051 H 0.83691 1.30369 1.05191
 C2052 C 0.85082 0.82876 0.62568
 C2053 C 0.83700 0.83548 0.59530
 C2054 C 0.84306 0.80825 0.57670
 C2055 C 0.86023 0.78696 0.59715
 O2056 O 0.86489 0.79952 0.62689
 H2057 H 0.82501 0.85785 0.58728
 H2058 H 0.83649 0.80500 0.55102
 C2059 C 0.34252 1.32002 0.63308
 C2060 C 0.32821 1.32729 0.60296
 C2061 C 0.33743 1.30230 0.58250
 C2062 C 0.35692 1.28174 0.60152
 O2063 O 0.36015 1.29273 0.63201
 H2064 H 0.31382 1.34859 0.59609
 H2065 H 0.33112 1.30000 0.55665
 C2066 C 0.34639 0.82272 1.12999
 C2067 C 0.33238 0.83039 1.09982
 C2068 C 0.34061 0.80496 1.07944
 C2069 C 0.35925 0.78377 1.09859
 O2070 O 0.36289 0.79476 1.12905
 H2071 H 0.31869 0.85215 1.09296
 H2072 H 0.33420 0.80271 1.05361
 C2073 C 0.85911 0.68797 0.83460
 C2074 C 0.87427 0.69764 0.80554
 C2075 C 0.89539 0.72215 0.81434
 C2076 C 0.89125 0.72604 0.84793
 O2077 O 0.86931 0.70537 0.86022
 H2078 H 0.86958 0.68933 0.78063
 H2079 H 0.91046 0.73676 0.79787
 C2080 C 0.86160 0.18689 0.33582
 C2081 C 0.87661 0.19649 0.30664
 C2082 C 0.89781 0.22101 0.31524
 C2083 C 0.89382 0.22500 0.34882
 O2084 O 0.87194 0.20438 0.36131
 H2085 H 0.87174 0.18820 0.28176
 H2086 H 0.91271 0.23564 0.29864
 C2087 C 0.37240 0.67417 0.34814
 C2088 C 0.40224 0.66862 0.33257
 C2089 C 0.42156 0.69484 0.34066
 C2090 C 0.40224 0.71448 0.36081
 O2091 O 0.37261 0.70166 0.36554
 H2092 H 0.40951 0.64774 0.31777
 H2093 H 0.44686 0.69860 0.33298
 C2094 C 0.37509 0.17115 0.85132
 C2095 C 0.40558 0.16441 0.83778
 C2096 C 0.42420 0.19162 0.84400
 C2097 C 0.40364 0.21292 0.86099
 O2098 O 0.37383 0.20040 0.86536
 H2099 H 0.41370 0.14201 0.82595
 H2100 H 0.44997 0.19482 0.83772
 C2101 C 1.12571 0.67163 1.15101
 C2102 C 1.09515 0.66475 1.16437
 C2103 C 1.07646 0.69193 1.15810
 C2104 C 1.09704 0.71330 1.14123
 O2105 O 1.12692 0.70091 1.13703
 H2106 H 1.08704 0.64228 1.17607
 H2107 H 1.05062 0.69505 1.16414
 C2108 C 1.14036 0.18768 0.66631
 C2109 C 1.12518 0.19741 0.69534
 C2110 C 1.10379 0.22166 0.68643
 C2111 C 1.10780 0.22538 0.65280
 O2112 O 1.12991 0.20484 0.64060
 H2113 H 1.13003 0.18933 0.72031
 H2114 H 1.08865 0.23626 0.70284
 C2115 C 0.62091 0.66884 0.64876
 C2116 C 0.59162 0.66515 0.66569
 C2117 C 0.57478 0.69362 0.66047
 C2118 C 0.59501 0.71271 0.64061
 O2119 O 0.62305 0.69754 0.63356
 H2120 H 0.58305 0.64391 0.67928
 H2121 H 0.55029 0.69905 0.66960
 C2122 C 0.63167 0.17659 1.15555
 C2123 C 0.60137 0.16865 1.16909
 C2124 C 0.58083 0.19378 1.16032
 C2125 C 0.60003 0.21505 1.14186
 O2126 O 0.63067 0.20439 1.13880
 H2127 H 0.59454 0.14690 1.18277
 H2128 H 0.55485 0.19577 1.16626
 C2129 C 1.33035 1.14391 0.88335
 C2130 C 1.33886 1.15832 0.91318
 C2131 C 1.31560 1.14796 0.93518
 C2132 C 1.29496 1.12762 0.91740
 O2133 O 1.30411 1.12489 0.88621
 H2134 H 1.35947 1.17430 0.91866
 H2135 H 1.31408 1.15432 0.96108
 C2136 C 1.31921 0.65493 0.37251
 C2137 C 1.30726 0.68422 0.38494
 C2138 C 1.28326 0.67558 0.40687
 C2139 C 1.28207 0.64170 0.40595
 O2140 O 1.30379 0.62927 0.38510
 H2141 H 1.31387 0.70898 0.37793
 H2142 H 1.26736 0.69215 0.42039
 C2143 C 0.81493 1.16186 0.36757
 C2144 C 0.80693 1.18907 0.38621
 C2145 C 0.78552 1.17796 0.40953
 C2146 C 0.78170 1.14473 0.40339
 O2147 O 0.79953 1.13503 0.37777
 H2148 H 0.81445 1.21427 0.38247
 H2149 H 0.77307 1.19299 0.42767
 C2150 C 0.81260 0.66270 0.86621
 C2151 C 0.80418 0.68988 0.88471
 C2152 C 0.78296 0.67855 0.90810
 C2153 C 0.77971 0.64524 0.90211
 O2154 O 0.79767 0.63569 0.87656
 H2155 H 0.81131 0.71518 0.88081
 H2156 H 0.77020 0.69345 0.92614
 C2157 C 1.31622 0.86293 1.16635
 C2158 C 1.31060 0.87911 1.19587
 C2159 C 1.28050 0.89364 1.19243
 C2160 C 1.26965 0.88508 1.16124
 O2161 O 1.29116 0.86618 1.14561
 H2162 H 1.32589 0.87971 1.21776
 H2163 H 1.26783 0.90800 1.21096
 C2164 C 1.31298 0.36156 0.66883
 C2165 C 1.30835 0.37919 0.69766
 C2166 C 1.27872 0.39464 0.69397
 C2167 C 1.26710 0.38518 0.66331
 O2168 O 1.28777 0.36487 0.64827
 H2169 H 1.32406 0.38027 0.71924
 H2170 H 1.26694 0.41032 0.71200
 C2171 C 0.82189 0.86802 0.66276
 C2172 C 0.81526 0.88023 0.69399
 C2173 C 0.78414 0.89292 0.69216
 C2174 C 0.77375 0.88718 0.66021
 O2175 O 0.79646 0.87179 0.64253
 H2176 H 0.83029 0.87917 0.71601
 H2177 H 0.77039 0.90407 0.71214
 C2178 C 0.82111 0.36749 1.16319
 C2179 C 0.81450 0.38045 1.19410
 C2180 C 0.78357 0.39355 1.19186
 C2181 C 0.77322 0.38733 1.15999
 O2182 O 0.79581 0.37124 1.14275
 H2183 H 0.82938 0.37966 1.21624
 H2184 H 0.76994 0.40530 1.21156
 C2185 C 0.68447 1.15802 1.13061
 C2186 C 0.69504 1.18650 1.11546
 C2187 C 0.71779 1.17662 1.09284
 C2188 C 0.71963 1.14285 1.09600
 O2189 O 0.69944 1.13160 1.11901
 H2190 H 0.68839 1.21158 1.12111
 H2191 H 0.73250 1.19253 1.07731
 C2192 C 0.66563 0.64211 0.61615
 C2193 C 0.65692 0.65549 0.58594
 C2194 C 0.68232 0.64794 0.56514
 C2195 C 0.70438 0.63021 0.58406
 O2196 O 0.69433 0.62674 0.61492
 H2197 H 0.63450 0.66846 0.57946
 H2198 H 0.68398 0.65372 0.53911
 C2199 C 0.18689 1.16244 0.63467
 C2200 C 0.19481 1.18943 0.61567
 C2201 C 0.21594 1.17800 0.59226
 C2202 C 0.21966 1.14481 0.59874
 O2203 O 0.20205 1.13544 0.62461
 H2204 H 0.18742 1.21471 0.61923
 H2205 H 0.22830 1.19280 0.57387
 C2206 C 0.17088 0.64515 1.11901
 C2207 C 0.16232 0.65977 1.08926
 C2208 C 0.18586 0.65004 1.06725
 C2209 C 0.20670 0.62980 1.08489
 O2210 O 0.19744 0.62658 1.11604
 H2211 H 0.14143 0.67539 1.08379
 H2212 H 0.18730 0.65660 1.04139
 C2213 C 0.69099 0.85852 0.82881
 C2214 C 0.69761 0.87371 0.79902
 C2215 C 0.72579 0.89132 0.80425
 C2216 C 0.73435 0.88544 0.83679
 O2217 O 0.71315 0.86570 0.85163
 H2218 H 0.68443 0.87121 0.77590
 H2219 H 0.73913 0.90543 0.78597
 C2220 C 0.67391 0.37711 0.34820
 C2221 C 0.67129 0.40742 0.33304
 C2222 C 0.70227 0.42057 0.33419
 C2223 C 0.72161 0.39759 0.35024
 O2224 O 0.70435 0.37126 0.35882
 H2225 H 0.64941 0.41929 0.32340
 H2226 H 0.70938 0.44470 0.32557
 C2227 C 0.17260 0.87922 0.35044
 C2228 C 0.17052 0.90957 0.33530
 C2229 C 0.20171 0.92217 0.33656
 C2230 C 0.22061 0.89882 0.35264
 O2231 O 0.20288 0.87282 0.36116
 H2232 H 0.14886 0.92177 0.32557
 H2233 H 0.20927 0.94616 0.32794
 C2234 C 0.17401 0.37797 0.84819
 C2235 C 0.17203 0.40791 0.83224
 C2236 C 0.20329 0.42046 0.83317
 C2237 C 0.22212 0.39751 0.84990
 O2238 O 0.20430 0.37179 0.85906
 H2239 H 0.15044 0.41996 0.82221
 H2240 H 0.21091 0.44420 0.82395
   
