data_POSCAR
  _audit_creation_date              2014-09-24
  _audit_creation_method            'ToBaCCo'
  _symmetry_space_group_name_H-M    'P1'
  _symmetry_Int_Tables_number       1
  _symmetry_cell_setting            triclinic
  loop_
  _symmetry_equiv_pos_as_xyz
 x,y,z
_cell_length_a 38.1377
_cell_length_b 38.1359
_cell_length_c 40.8136
_cell_angle_alpha 89.999800
_cell_angle_beta 90.000200
_cell_angle_gamma 90.000000
loop_
  _atom_site_label
  _atom_site_type_symbol
  _atom_site_fract_x
  _atom_site_fract_y
  _atom_site_fract_z
C1 C 0.40106 -0.00001 0.25000
 C2 C 0.09894 0.00002 0.75000
 C3 C 0.59894 0.50002 0.25000
 C4 C 0.90106 0.49998 0.75000
 C5 C 0.24998 0.35068 1.00000
 C6 C 0.75002 0.14933 1.00000
 C7 C 0.25002 0.64933 0.50000
 C8 C 0.74998 0.85068 0.50000
 C9 C 0.00000 0.25000 0.37136
 C10 C 0.00000 0.75000 0.12864
 C11 C 0.50000 0.25000 0.62864
 C12 C 0.50000 0.75000 0.87136
 C13 C -0.25001 0.65105 1.00000
 C14 C -0.24998 0.34895 0.50000
 C15 C 0.25002 -0.15105 0.00000
 C16 C 0.24998 1.15105 0.50000
 C17 C 0.10066 0.49998 0.25000
 C18 C -0.10066 1.00002 0.25000
 C19 C 0.39934 0.50002 -0.25000
 C20 C 0.60066 -0.00002 -0.25000
 C21 C 0.00000 0.25000 0.87862
 C22 C 0.50000 0.25000 0.12138
 C23 C -0.00000 0.75000 0.62138
 C24 C 0.50000 0.75000 0.37862
 Zr25 Zr 0.02912 -0.02842 1.04456
 O26 O 0.06662 -0.01310 1.08000
 O27 O 0.01971 -0.08001 1.05808
 O28 O 0.00716 -0.02589 1.09289
 O29 O 0.08996 -0.04609 0.98261
 O30 O -0.04401 0.00441 1.08583
 O31 O 0.07882 -0.05373 1.03716
 O32 O -0.02240 -0.09882 1.02221
 O33 O -0.02510 -0.03404 1.03689
 O34 O 0.02248 -0.05293 0.99901
 O35 O 0.00805 0.02250 1.04618
 O36 O 0.05491 0.00379 1.01014
 Zr37 Zr -0.02938 0.02532 0.95619
 Zr38 Zr -0.04557 0.01683 1.03603
 Zr39 Zr 0.04541 -0.02000 0.96461
 Zr40 Zr -0.03119 -0.05665 0.99059
 O41 O 0.09129 0.00680 0.94960
 O42 O -0.08027 -0.07127 1.01086
 O43 O -0.00822 -0.02580 0.95395
 O44 O -0.05439 -0.00710 0.99061
 O45 O -0.02285 0.05023 1.00160
 O46 O 0.02476 0.03056 0.96416
 C47 C -0.00150 -0.10281 1.04645
 C48 C 0.09814 -0.05753 1.01118
 C49 C -0.02153 -0.01165 1.10363
 O50 O -0.09285 -0.00873 1.04894
 O51 O -0.08822 0.04647 1.01893
 O52 O -0.07810 0.05244 0.96406
 C53 C -0.09660 0.05767 0.99035
 O54 O 0.07104 0.05777 1.04621
 Zr55 Zr 0.03114 0.05336 1.01007
 O56 O -0.02101 0.07745 0.94366
 O57 O -0.04992 0.06339 1.06398
 O58 O 0.01615 0.09419 1.04247
 O59 O 0.07793 0.07139 0.98758
 O60 O 0.01787 0.09718 0.98218
 C61 C -0.00234 0.10109 0.95746
 O62 O -0.06792 0.01053 0.92154
 O63 O 0.05161 -0.06757 0.93847
 O64 O -0.00852 0.02106 0.90757
 O65 O 0.04145 -0.01131 0.91419
 O66 O -0.01508 -0.09990 0.96160
 O67 O -0.06604 -0.06348 0.95045
 C68 C 0.01918 0.00524 0.89651
 H69 H 0.03349 -0.07640 0.99788
 H70 H -0.07972 -0.00947 0.98580
 H71 H 0.03643 0.04488 0.94711
 H72 H 0.01216 0.03364 1.06774
 H73 H -0.08350 -0.09669 1.00679
 H74 H -0.10519 0.00673 1.06470
 H75 H -0.07239 0.06203 1.07613
 H76 H 0.03105 0.11483 1.03759
 H77 H -0.03070 -0.11988 0.96691
 H78 H 0.07429 -0.06610 0.92668
 H79 H 0.10343 -0.00860 0.93366
 H80 H 0.08032 0.09667 0.99277
 H81 H -0.07811 -0.08637 0.95249
 H82 H -0.07221 0.03127 0.90743
 H83 H 0.07111 -0.03387 1.09402
 H84 H 0.07948 0.08230 1.04717
 Zr85 Zr 0.52912 0.47157 0.54456
 O86 O 0.56661 0.48689 0.58000
 O87 O 0.51970 0.41998 0.55808
 O88 O 0.50715 0.47411 0.59289
 O89 O 0.58996 0.45391 0.48260
 O90 O 0.45599 0.50441 0.58583
 O91 O 0.57881 0.44626 0.53716
 O92 O 0.47759 0.40118 0.52221
 O93 O 0.47490 0.46596 0.53689
 O94 O 0.52248 0.44707 0.49901
 O95 O 0.50805 0.52250 0.54618
 O96 O 0.55491 0.50379 0.51014
 Zr97 Zr 0.47062 0.52532 0.45619
 Zr98 Zr 0.45443 0.51683 0.53603
 Zr99 Zr 0.54541 0.48000 0.46461
 Zr100 Zr 0.46881 0.44335 0.49059
 O101 O 0.59128 0.50680 0.44960
 O102 O 0.41973 0.42873 0.51085
 O103 O 0.49178 0.47420 0.45394
 O104 O 0.44561 0.49290 0.49060
 O105 O 0.47715 0.55022 0.50160
 O106 O 0.52476 0.53056 0.46416
 C107 C 0.49849 0.39719 0.54645
 C108 C 0.59814 0.44247 0.51118
 C109 C 0.47846 0.48834 0.60363
 O110 O 0.40714 0.49127 0.54893
 O111 O 0.41178 0.54646 0.51893
 O112 O 0.42190 0.55244 0.46406
 C113 C 0.40340 0.55766 0.49034
 O114 O 0.57103 0.55777 0.54621
 Zr115 Zr 0.53114 0.55336 0.51007
 O116 O 0.47899 0.57745 0.44367
 O117 O 0.45008 0.56339 0.56398
 O118 O 0.51615 0.59419 0.54248
 O119 O 0.57793 0.57139 0.48759
 O120 O 0.51787 0.59718 0.48218
 C121 C 0.49766 0.60109 0.45746
 O122 O 0.43208 0.51053 0.42154
 O123 O 0.55161 0.43243 0.43847
 O124 O 0.49148 0.52106 0.40757
 O125 O 0.54145 0.48870 0.41419
 O126 O 0.48492 0.40010 0.46159
 O127 O 0.43395 0.43652 0.45044
 C128 C 0.51918 0.50525 0.39651
 H129 H 0.53349 0.42360 0.49788
 H130 H 0.42027 0.49053 0.48580
 H131 H 0.53643 0.54488 0.44711
 H132 H 0.51216 0.53363 0.56774
 H133 H 0.41649 0.40331 0.50678
 H134 H 0.39481 0.50673 0.56469
 H135 H 0.42761 0.56203 0.57613
 H136 H 0.53105 0.61483 0.53759
 H137 H 0.46929 0.38012 0.46690
 H138 H 0.57429 0.43390 0.42668
 H139 H 0.60343 0.49140 0.43366
 H140 H 0.58031 0.59666 0.49277
 H141 H 0.42189 0.41364 0.45248
 H142 H 0.42779 0.53127 0.40743
 H143 H 0.57110 0.46611 0.59402
 H144 H 0.57948 0.58230 0.54717
 Zr145 Zr 0.47088 1.02842 0.54456
 O146 O 0.43338 1.01310 0.58000
 O147 O 0.48029 1.08001 0.55808
 O148 O 0.49284 1.02589 0.59289
 O149 O 0.41004 1.04608 0.48260
 O150 O 0.54401 0.99559 0.58583
 O151 O 0.42118 1.05373 0.53716
 O152 O 0.52240 1.09882 0.52221
 O153 O 0.52510 1.03404 0.53689
 O154 O 0.47752 1.05293 0.49901
 O155 O 0.49195 0.97750 0.54618
 O156 O 0.44509 0.99621 0.51014
 Zr157 Zr 0.52938 0.97468 0.45619
 Zr158 Zr 0.54557 0.98317 0.53603
 Zr159 Zr 0.45459 1.02000 0.46461
 Zr160 Zr 0.53119 1.05665 0.49059
 O161 O 0.40872 0.99320 0.44960
 O162 O 0.58027 1.07128 0.51086
 O163 O 0.50822 1.02580 0.45395
 O164 O 0.55439 1.00711 0.49061
 O165 O 0.52285 0.94978 0.50160
 O166 O 0.47524 0.96944 0.46416
 C167 C 0.50150 1.10281 0.54645
 C168 C 0.40186 1.05752 0.51118
 C169 C 0.52153 1.01166 0.60363
 O170 O 0.59285 1.00873 0.54894
 O171 O 0.58822 0.95354 0.51893
 O172 O 0.57810 0.94757 0.46406
 C173 C 0.59660 0.94234 0.49035
 O174 O 0.42897 0.94222 0.54621
 Zr175 Zr 0.46886 0.94664 0.51007
 O176 O 0.52101 0.92255 0.44366
 O177 O 0.54992 0.93661 0.56398
 O178 O 0.48386 0.90581 0.54247
 O179 O 0.42207 0.92860 0.48758
 O180 O 0.48214 0.90282 0.48218
 C181 C 0.50234 0.89891 0.45746
 O182 O 0.56792 0.98948 0.42154
 O183 O 0.44839 1.06756 0.43847
 O184 O 0.50853 0.97894 0.40757
 O185 O 0.45855 1.01130 0.41419
 O186 O 0.51508 1.09990 0.46159
 O187 O 0.56604 1.06348 0.45045
 C188 C 0.48082 0.99475 0.39651
 H189 H 0.46650 1.07640 0.49788
 H190 H 0.57973 1.00947 0.48580
 H191 H 0.46358 0.95512 0.44711
 H192 H 0.48784 0.96636 0.56775
 H193 H 0.58350 1.09669 0.50679
 H194 H 0.60519 0.99327 0.56470
 H195 H 0.57239 0.93797 0.57613
 H196 H 0.46896 0.88517 0.53759
 H197 H 0.53070 1.11988 0.46691
 H198 H 0.42570 1.06610 0.42668
 H199 H 0.39657 1.00860 0.43366
 H200 H 0.41969 0.90333 0.49277
 H201 H 0.57811 1.08637 0.45249
 H202 H 0.57221 0.96873 0.40743
 H203 H 0.42889 1.03387 0.59402
 H204 H 0.42052 0.91770 0.54717
 Zr205 Zr -0.02912 0.52843 1.04456
 O206 O -0.06661 0.51311 1.08000
 O207 O -0.01970 0.58002 1.05808
 O208 O -0.00715 0.52590 1.09289
 O209 O -0.08996 0.54609 0.98260
 O210 O 0.04402 0.49560 1.08583
 O211 O -0.07881 0.55373 1.03715
 O212 O 0.02240 0.59882 1.02220
 O213 O 0.02510 0.53404 1.03689
 O214 O -0.02248 0.55293 0.99901
 O215 O -0.00805 0.47751 1.04618
 O216 O -0.05491 0.49621 1.01014
 Zr217 Zr 0.02938 0.47468 0.95619
 Zr218 Zr 0.04557 0.48317 1.03603
 Zr219 Zr -0.04541 0.52000 0.96461
 Zr220 Zr 0.03119 0.55665 0.99059
 O221 O -0.09128 0.49320 0.94960
 O222 O 0.08027 0.57128 1.01085
 O223 O 0.00822 0.52580 0.95394
 O224 O 0.05439 0.50711 0.99060
 O225 O 0.02285 0.44978 1.00160
 O226 O -0.02476 0.46944 0.96416
 C227 C 0.00150 0.60281 1.04644
 C228 C -0.09814 0.55753 1.01118
 C229 C 0.02154 0.51166 1.10363
 O230 O 0.09286 0.50874 1.04893
 O231 O 0.08822 0.45354 1.01893
 O232 O 0.07810 0.44757 0.96406
 C233 C 0.09660 0.44234 0.99035
 O234 O -0.07103 0.44223 1.04621
 Zr235 Zr -0.03113 0.44664 1.01007
 O236 O 0.02101 0.42255 0.94367
 O237 O 0.04993 0.43662 1.06398
 O238 O -0.01614 0.40581 1.04248
 O239 O -0.07793 0.42861 0.98759
 O240 O -0.01786 0.40282 0.98219
 C241 C 0.00234 0.39891 0.95746
 O242 O 0.06792 0.48947 0.92154
 O243 O -0.05161 0.56756 0.93846
 O244 O 0.00852 0.47894 0.90757
 O245 O -0.04146 0.51130 0.91419
 O246 O 0.01508 0.59990 0.96159
 O247 O 0.06604 0.56348 0.95044
 C248 C -0.01918 0.49475 0.89651
 H249 H -0.03349 0.57640 0.99788
 H250 H 0.07973 0.50947 0.98580
 H251 H -0.03642 0.45512 0.94711
 H252 H -0.01216 0.46637 1.06775
 H253 H 0.08350 0.59669 1.00678
 H254 H 0.10519 0.49328 1.06469
 H255 H 0.07240 0.43798 1.07613
 H256 H -0.03104 0.38517 1.03759
 H257 H 0.03070 0.61988 0.96690
 H258 H -0.07430 0.56610 0.92668
 H259 H -0.10343 0.50860 0.93367
 H260 H -0.08031 0.40333 0.99277
 H261 H 0.07811 0.58637 0.95248
 H262 H 0.07221 0.46873 0.90743
 H263 H -0.07110 0.53388 1.09402
 H264 H -0.07948 0.41770 1.04717
 Zr265 Zr -0.02908 0.47156 0.45546
 O266 O -0.06657 0.48688 0.42002
 O267 O -0.01966 0.41997 0.44194
 O268 O -0.00711 0.47409 0.40714
 O269 O -0.08992 0.45390 0.51742
 O270 O 0.04406 0.50439 0.41419
 O271 O -0.07877 0.44625 0.46286
 O272 O 0.02245 0.40117 0.47781
 O273 O 0.02514 0.46594 0.46314
 O274 O -0.02244 0.44705 0.50101
 O275 O -0.00801 0.52248 0.45384
 O276 O -0.05487 0.50378 0.48988
 Zr277 Zr 0.02942 0.52531 0.54383
 Zr278 Zr 0.04562 0.51682 0.46399
 Zr279 Zr -0.04537 0.47999 0.53541
 Zr280 Zr 0.03123 0.44334 0.50943
 O281 O -0.09124 0.50679 0.55042
 O282 O 0.08031 0.42871 0.48918
 O283 O 0.00826 0.47419 0.54608
 O284 O 0.05444 0.49288 0.50942
 O285 O 0.02289 0.55021 0.49842
 O286 O -0.02472 0.53055 0.53586
 C287 C 0.00155 0.39718 0.45357
 C288 C -0.09809 0.44246 0.48884
 C289 C 0.02158 0.48833 0.39639
 O290 O 0.09290 0.49125 0.45109
 O291 O 0.08826 0.54645 0.48109
 O292 O 0.07814 0.55242 0.53596
 C293 C 0.09664 0.55765 0.50968
 O294 O -0.07099 0.55776 0.45381
 Zr295 Zr -0.03109 0.55334 0.48995
 O296 O 0.02106 0.57744 0.55635
 O297 O 0.04997 0.56337 0.43604
 O298 O -0.01610 0.59417 0.45754
 O299 O -0.07788 0.57138 0.51244
 O300 O -0.01781 0.59717 0.51783
 C301 C 0.00239 0.60108 0.54256
 O302 O 0.06796 0.51051 0.57848
 O303 O -0.05157 0.43242 0.56155
 O304 O 0.00856 0.52105 0.59245
 O305 O -0.04141 0.48868 0.58583
 O306 O 0.01512 0.40008 0.53843
 O307 O 0.06608 0.43651 0.54958
 C308 C -0.01914 0.50523 0.60351
 H309 H -0.03345 0.42359 0.50214
 H310 H 0.07977 0.49052 0.51422
 H311 H -0.03638 0.54487 0.55291
 H312 H -0.01212 0.53362 0.43227
 H313 H 0.08355 0.40330 0.49325
 H314 H 0.10524 0.50671 0.43533
 H315 H 0.07244 0.56201 0.42389
 H316 H -0.03101 0.61481 0.46243
 H317 H 0.03074 0.38011 0.53312
 H318 H -0.07425 0.43389 0.57334
 H319 H -0.10339 0.49139 0.56635
 H320 H -0.08026 0.59666 0.50725
 H321 H 0.07815 0.41362 0.54755
 H322 H 0.07225 0.53126 0.59260
 H323 H -0.07106 0.46610 0.40600
 H324 H -0.07944 0.58228 0.45285
 Zr325 Zr 0.47092 -0.02844 -0.04454
 O326 O 0.43343 -0.01311 -0.07997
 O327 O 0.48034 -0.08003 -0.05806
 O328 O 0.49289 -0.02590 -0.09286
 O329 O 0.41008 -0.04610 0.01742
 O330 O 0.54406 0.00440 -0.08581
 O331 O 0.42123 -0.05374 -0.03713
 O332 O 0.52245 -0.09883 -0.02219
 O333 O 0.52514 -0.03405 -0.03686
 O334 O 0.47756 -0.05294 0.00101
 O335 O 0.49199 0.02249 -0.04616
 O336 O 0.44513 0.00378 -0.01012
 Zr337 Zr 0.52942 0.02531 0.04384
 Zr338 Zr 0.54562 0.01682 -0.03601
 Zr339 Zr 0.45463 -0.02001 0.03541
 Zr340 Zr 0.53123 -0.05666 0.00943
 O341 O 0.40876 0.00679 0.05042
 O342 O 0.58031 -0.07129 -0.01083
 O343 O 0.50826 -0.02581 0.04608
 O344 O 0.55444 -0.00712 0.00942
 O345 O 0.52289 0.05021 -0.00158
 O346 O 0.47528 0.03055 0.03586
 C347 C 0.50155 -0.10282 -0.04643
 C348 C 0.40191 -0.05754 -0.01116
 C349 C 0.52158 -0.01167 -0.10361
 O350 O 0.59290 -0.00874 -0.04891
 O351 O 0.58826 0.04645 -0.01891
 O352 O 0.57814 0.05242 0.03596
 C353 C 0.59664 0.05765 0.00968
 O354 O 0.42901 0.05776 -0.04619
 Zr355 Zr 0.46891 0.05335 -0.01005
 O356 O 0.52106 0.07744 0.05636
 O357 O 0.54997 0.06338 -0.06396
 O358 O 0.48390 0.09418 -0.04245
 O359 O 0.42212 0.07138 0.01244
 O360 O 0.48219 0.09717 0.01784
 C361 C 0.50239 0.10108 0.04256
 O362 O 0.56796 0.01051 0.07848
 O363 O 0.44843 -0.06758 0.06156
 O364 O 0.50857 0.02105 0.09245
 O365 O 0.45859 -0.01132 0.08583
 O366 O 0.51512 -0.09992 0.03843
 O367 O 0.56609 -0.06349 0.04958
 C368 C 0.48086 0.00523 0.10351
 H369 H 0.46655 -0.07641 0.00214
 H370 H 0.57977 -0.00948 0.01422
 H371 H 0.46362 0.04487 0.05291
 H372 H 0.48788 0.03363 -0.06772
 H373 H 0.58355 -0.09670 -0.00675
 H374 H 0.60524 0.00671 -0.06467
 H375 H 0.57244 0.06202 -0.07611
 H376 H 0.46900 0.11482 -0.03757
 H377 H 0.53075 -0.11989 0.03312
 H378 H 0.42575 -0.06611 0.07334
 H379 H 0.39661 -0.00861 0.06636
 H380 H 0.41974 0.09666 0.00725
 H381 H 0.57815 -0.08638 0.04754
 H382 H 0.57225 0.03126 0.09260
 H383 H 0.42894 -0.03389 -0.09399
 H384 H 0.42056 0.08229 -0.04714
 Zr385 Zr 0.52908 0.52844 -0.04454
 O386 O 0.56657 0.51312 -0.07998
 O387 O 0.51966 0.58003 -0.05806
 O388 O 0.50711 0.52591 -0.09287
 O389 O 0.58992 0.54610 0.01742
 O390 O 0.45594 0.49561 -0.08581
 O391 O 0.57877 0.55375 -0.03713
 O392 O 0.47755 0.59883 -0.02219
 O393 O 0.47486 0.53406 -0.03687
 O394 O 0.52244 0.55295 0.00101
 O395 O 0.50801 0.47752 -0.04616
 O396 O 0.55487 0.49622 -0.01012
 Zr397 Zr 0.47058 0.47469 0.04383
 Zr398 Zr 0.45439 0.48318 -0.03601
 Zr399 Zr 0.54537 0.52001 0.03541
 Zr400 Zr 0.46877 0.55666 0.00943
 O401 O 0.59124 0.49321 0.05042
 O402 O 0.41969 0.57129 -0.01082
 O403 O 0.49174 0.52581 0.04608
 O404 O 0.44557 0.50712 0.00942
 O405 O 0.47711 0.44979 -0.00158
 O406 O 0.52472 0.46945 0.03586
 C407 C 0.49845 0.60282 -0.04643
 C408 C 0.59809 0.55754 -0.01116
 C409 C 0.47842 0.51167 -0.10361
 O410 O 0.40710 0.50875 -0.04891
 O411 O 0.41174 0.45355 -0.01891
 O412 O 0.42186 0.44758 0.03596
 C413 C 0.40336 0.44235 0.00967
 O414 O 0.57099 0.44224 -0.04619
 Zr415 Zr 0.53109 0.44666 -0.01005
 O416 O 0.47894 0.42256 0.05635
 O417 O 0.45003 0.43663 -0.06396
 O418 O 0.51610 0.40583 -0.04246
 O419 O 0.57789 0.42862 0.01244
 O420 O 0.51781 0.40283 0.01783
 C421 C 0.49761 0.39892 0.04256
 O422 O 0.43204 0.48949 0.07848
 O423 O 0.55157 0.56758 0.06155
 O424 O 0.49144 0.47895 0.09245
 O425 O 0.54141 0.51132 0.08583
 O426 O 0.48488 0.59992 0.03843
 O427 O 0.43392 0.56349 0.04958
 C428 C 0.51914 0.49477 0.10351
 H429 H 0.53345 0.57642 0.00214
 H430 H 0.42023 0.50948 0.01422
 H431 H 0.53638 0.45513 0.05291
 H432 H 0.51212 0.46638 -0.06772
 H433 H 0.41645 0.59670 -0.00675
 H434 H 0.39477 0.49329 -0.06467
 H435 H 0.42756 0.43799 -0.07611
 H436 H 0.53101 0.38519 -0.03757
 H437 H 0.46926 0.61990 0.03312
 H438 H 0.57425 0.56611 0.07334
 H439 H 0.60339 0.50861 0.06636
 H440 H 0.58026 0.40334 0.00725
 H441 H 0.42185 0.58638 0.04755
 H442 H 0.42775 0.46874 0.09259
 H443 H 0.57106 0.53390 -0.09400
 H444 H 0.57944 0.41772 -0.04715
 Zr445 Zr 0.02908 1.02844 0.45546
 O446 O 0.06658 1.01311 0.42003
 O447 O 0.01966 1.08003 0.44194
 O448 O 0.00711 1.02590 0.40714
 O449 O 0.08992 1.04610 0.51742
 O450 O -0.04405 0.99560 0.41419
 O451 O 0.07877 1.05374 0.46287
 O452 O -0.02245 1.09883 0.47781
 O453 O -0.02514 1.03405 0.46313
 O454 O 0.02244 1.05294 0.50101
 O455 O 0.00801 0.97751 0.45384
 O456 O 0.05487 0.99622 0.48989
 Zr457 Zr -0.02942 0.97469 0.54384
 Zr458 Zr -0.04561 0.98318 0.46399
 Zr459 Zr 0.04537 1.02001 0.53541
 Zr460 Zr -0.03123 1.05666 0.50943
 O461 O 0.09124 0.99321 0.55042
 O462 O -0.08031 1.07129 0.48917
 O463 O -0.00826 1.02581 0.54608
 O464 O -0.05443 1.00712 0.50942
 O465 O -0.02289 0.94979 0.49842
 O466 O 0.02472 0.96945 0.53586
 C467 C -0.00155 1.10282 0.45357
 C468 C 0.09810 1.05754 0.48884
 C469 C -0.02158 1.01167 0.39639
 O470 O -0.09290 1.00875 0.45109
 O471 O -0.08826 0.95355 0.48109
 O472 O -0.07814 0.94758 0.53596
 C473 C -0.09664 0.94235 0.50968
 O474 O 0.07099 0.94224 0.45382
 Zr475 Zr 0.03109 0.94665 0.48995
 O476 O -0.02106 0.92256 0.55636
 O477 O -0.04996 0.93662 0.43604
 O478 O 0.01610 0.90582 0.45755
 O479 O 0.07789 0.92862 0.51244
 O480 O 0.01781 0.90283 0.51784
 C481 C -0.00239 0.89892 0.54256
 O482 O -0.06796 0.98949 0.57848
 O483 O 0.05157 1.06758 0.56156
 O484 O -0.00857 0.97895 0.59245
 O485 O 0.04141 1.01132 0.58583
 O486 O -0.01512 1.09992 0.53843
 O487 O -0.06608 1.06349 0.54958
 C488 C 0.01914 0.99477 0.60351
 H489 H 0.03345 1.07641 0.50214
 H490 H -0.07977 1.00948 0.51422
 H491 H 0.03638 0.95513 0.55291
 H492 H 0.01212 0.96637 0.43228
 H493 H -0.08355 1.09670 0.49324
 H494 H -0.10523 0.99329 0.43533
 H495 H -0.07243 0.93798 0.42389
 H496 H 0.03101 0.88518 0.46243
 H497 H -0.03074 1.11989 0.53311
 H498 H 0.07425 1.06611 0.57334
 H499 H 0.10339 1.00861 0.56636
 H500 H 0.08026 0.90334 0.50726
 H501 H -0.07815 1.08638 0.54754
 H502 H -0.07225 0.96874 0.59260
 H503 H 0.07106 1.03389 0.40601
 H504 H 0.07944 0.91771 0.45286
 Zr505 Zr 0.72157 0.27912 0.20544
 O506 O 0.73689 0.31662 0.17000
 O507 O 0.66999 0.26970 0.19192
 O508 O 0.72411 0.25715 0.15711
 O509 O 0.70391 0.33996 0.26739
 O510 O 0.75441 0.20598 0.16417
 O511 O 0.69627 0.32881 0.21284
 O512 O 0.65119 0.22759 0.22780
 O513 O 0.71596 0.22489 0.21311
 O514 O 0.69707 0.27248 0.25099
 O515 O 0.77250 0.25805 0.20382
 O516 O 0.75379 0.30491 0.23986
 Zr517 Zr 0.77533 0.22062 0.29381
 Zr518 Zr 0.76684 0.20443 0.21397
 Zr519 Zr 0.73000 0.29541 0.28539
 Zr520 Zr 0.69336 0.21880 0.25941
 O521 O 0.75679 0.34129 0.30040
 O522 O 0.67874 0.16972 0.23915
 O523 O 0.72421 0.24178 0.29606
 O524 O 0.74290 0.19560 0.25939
 O525 O 0.80023 0.22715 0.24840
 O526 O 0.78056 0.27477 0.28584
 C527 C 0.64719 0.24849 0.20356
 C528 C 0.69247 0.34814 0.23882
 C529 C 0.73834 0.22846 0.14637
 O530 O 0.74128 0.15714 0.20107
 O531 O 0.79647 0.16178 0.23107
 O532 O 0.80244 0.17191 0.28594
 C533 C 0.80767 0.15340 0.25966
 O534 O 0.80776 0.32104 0.20378
 Zr535 Zr 0.80336 0.28114 0.23993
 O536 O 0.82745 0.22900 0.30633
 O537 O 0.81339 0.20008 0.18602
 O538 O 0.84418 0.26615 0.20752
 O539 O 0.82138 0.32794 0.26241
 O540 O 0.84718 0.26787 0.26781
 C541 C 0.85109 0.24767 0.29254
 O542 O 0.76054 0.18208 0.32846
 O543 O 0.68244 0.30161 0.31153
 O544 O 0.77107 0.24148 0.34243
 O545 O 0.73870 0.29146 0.33581
 O546 O 0.65011 0.23491 0.28841
 O547 O 0.68653 0.18395 0.29956
 C548 C 0.75525 0.26919 0.35349
 H549 H 0.67360 0.28349 0.25212
 H550 H 0.74054 0.17027 0.26420
 H551 H 0.79488 0.28643 0.30288
 H552 H 0.78363 0.26216 0.18225
 H553 H 0.65333 0.16649 0.24322
 H554 H 0.75674 0.14480 0.18531
 H555 H 0.81203 0.17761 0.17387
 H556 H 0.86482 0.28106 0.21240
 H557 H 0.63013 0.21929 0.28310
 H558 H 0.68390 0.32430 0.32332
 H559 H 0.74140 0.35344 0.31633
 H560 H 0.84666 0.33032 0.25722
 H561 H 0.66365 0.17188 0.29752
 H562 H 0.78128 0.17779 0.34257
 H563 H 0.71611 0.32110 0.15598
 H564 H 0.83229 0.32949 0.20283
 Zr565 Zr 0.77843 0.72088 0.70544
 O566 O 0.76311 0.68339 0.67000
 O567 O 0.83001 0.73030 0.69192
 O568 O 0.77589 0.74285 0.65711
 O569 O 0.79609 0.66004 0.76739
 O570 O 0.74559 0.79402 0.66417
 O571 O 0.80374 0.67119 0.71284
 O572 O 0.84881 0.77241 0.72780
 O573 O 0.78404 0.77511 0.71311
 O574 O 0.80293 0.72752 0.75099
 O575 O 0.72750 0.74195 0.70382
 O576 O 0.74621 0.69509 0.73986
 Zr577 Zr 0.72467 0.77938 0.79381
 Zr578 Zr 0.73317 0.79557 0.71397
 Zr579 Zr 0.77000 0.70459 0.78539
 Zr580 Zr 0.80664 0.78120 0.75941
 O581 O 0.74321 0.65871 0.80040
 O582 O 0.82126 0.83028 0.73915
 O583 O 0.77579 0.75822 0.79606
 O584 O 0.75710 0.80440 0.75939
 O585 O 0.69978 0.77285 0.74840
 O586 O 0.71944 0.72523 0.78584
 C587 C 0.85281 0.75151 0.70356
 C588 C 0.80753 0.65186 0.73882
 C589 C 0.76166 0.77154 0.64637
 O590 O 0.75872 0.84286 0.70107
 O591 O 0.70353 0.83822 0.73107
 O592 O 0.69756 0.82809 0.78594
 C593 C 0.69233 0.84660 0.75965
 O594 O 0.69224 0.67896 0.70378
 Zr595 Zr 0.69665 0.71886 0.73993
 O596 O 0.67255 0.77100 0.80633
 O597 O 0.68661 0.79992 0.68602
 O598 O 0.65582 0.73385 0.70752
 O599 O 0.67862 0.67206 0.76241
 O600 O 0.65282 0.73213 0.76781
 C601 C 0.64891 0.75233 0.79253
 O602 O 0.73946 0.81792 0.82846
 O603 O 0.81756 0.69839 0.81153
 O604 O 0.72893 0.75852 0.84243
 O605 O 0.76130 0.70854 0.83581
 O606 O 0.84989 0.76509 0.78841
 O607 O 0.81347 0.81605 0.79956
 C608 C 0.74475 0.73081 0.85349
 H609 H 0.82640 0.71651 0.75212
 H610 H 0.75946 0.82973 0.76420
 H611 H 0.70512 0.71357 0.80288
 H612 H 0.71637 0.73784 0.68225
 H613 H 0.84668 0.83351 0.74322
 H614 H 0.74326 0.85520 0.68531
 H615 H 0.68797 0.82239 0.67387
 H616 H 0.63518 0.71894 0.71240
 H617 H 0.86987 0.78071 0.78310
 H618 H 0.81610 0.67570 0.82332
 H619 H 0.75860 0.64656 0.81633
 H620 H 0.65334 0.66968 0.75722
 H621 H 0.83635 0.82812 0.79752
 H622 H 0.71872 0.82221 0.84257
 H623 H 0.78389 0.67890 0.65598
 H624 H 0.66771 0.67051 0.70283
 Zr625 Zr 0.22155 0.22093 0.79454
 O626 O 0.23687 0.18343 0.82998
 O627 O 0.16997 0.23036 0.80805
 O628 O 0.22408 0.24290 0.84286
 O629 O 0.20390 0.16008 0.73259
 O630 O 0.25439 0.29407 0.83581
 O631 O 0.19624 0.17123 0.78714
 O632 O 0.15117 0.27247 0.77217
 O633 O 0.21594 0.27515 0.78686
 O634 O 0.19706 0.22757 0.74899
 O635 O 0.27248 0.24200 0.79616
 O636 O 0.25377 0.19513 0.76012
 Zr637 Zr 0.27532 0.27942 0.70617
 Zr638 Zr 0.26682 0.29562 0.78601
 Zr639 Zr 0.22999 0.20463 0.71459
 Zr640 Zr 0.19334 0.28124 0.74056
 O641 O 0.25678 0.15875 0.69959
 O642 O 0.17872 0.33033 0.76081
 O643 O 0.22420 0.25826 0.70392
 O644 O 0.24289 0.30444 0.74058
 O645 O 0.30021 0.27289 0.75159
 O646 O 0.28055 0.22527 0.71414
 C647 C 0.14718 0.25157 0.79642
 C648 C 0.19245 0.15191 0.76116
 C649 C 0.23832 0.27159 0.85361
 O650 O 0.24125 0.34291 0.79891
 O651 O 0.29645 0.33827 0.76891
 O652 O 0.30243 0.32814 0.71404
 C653 C 0.30766 0.34664 0.74032
 O654 O 0.30774 0.17900 0.79620
 Zr655 Zr 0.30334 0.21890 0.76006
 O656 O 0.32744 0.27105 0.69365
 O657 O 0.31337 0.29997 0.81397
 O658 O 0.34416 0.23389 0.79247
 O659 O 0.32137 0.17211 0.73757
 O660 O 0.34716 0.23218 0.73218
 C661 C 0.35108 0.25238 0.70746
 O662 O 0.26053 0.31796 0.67152
 O663 O 0.18243 0.19843 0.68844
 O664 O 0.27106 0.25856 0.65755
 O665 O 0.23869 0.20858 0.66417
 O666 O 0.15009 0.26513 0.71156
 O667 O 0.18652 0.31609 0.70041
 C668 C 0.25524 0.23085 0.64649
 H669 H 0.17359 0.21656 0.74785
 H670 H 0.24053 0.32977 0.73577
 H671 H 0.29487 0.21361 0.69710
 H672 H 0.28361 0.23789 0.81773
 H673 H 0.15331 0.33356 0.75674
 H674 H 0.25671 0.35525 0.81467
 H675 H 0.31201 0.32244 0.82611
 H676 H 0.36480 0.21898 0.78759
 H677 H 0.13012 0.28076 0.71687
 H678 H 0.18389 0.17574 0.67666
 H679 H 0.24139 0.14660 0.68365
 H680 H 0.34665 0.16973 0.74276
 H681 H 0.16364 0.32816 0.70244
 H682 H 0.28128 0.32225 0.65740
 H683 H 0.21609 0.17895 0.84400
 H684 H 0.33227 0.17055 0.79716
 Zr685 Zr 0.27844 0.77907 0.29454
 O686 O 0.26313 0.81657 0.32998
 O687 O 0.33003 0.76965 0.30806
 O688 O 0.27591 0.75711 0.34287
 O689 O 0.29610 0.83992 0.23259
 O690 O 0.24561 0.70594 0.33581
 O691 O 0.30375 0.82877 0.28714
 O692 O 0.34883 0.72754 0.27218
 O693 O 0.28405 0.72485 0.28686
 O694 O 0.30294 0.77243 0.24899
 O695 O 0.22752 0.75801 0.29616
 O696 O 0.24623 0.80487 0.26012
 Zr697 Zr 0.22469 0.72058 0.20617
 Zr698 Zr 0.23318 0.70438 0.28601
 Zr699 Zr 0.27002 0.79537 0.21459
 Zr700 Zr 0.30666 0.71876 0.24057
 O701 O 0.24322 0.84125 0.19958
 O702 O 0.32128 0.66968 0.26082
 O703 O 0.27581 0.74174 0.20392
 O704 O 0.25712 0.69556 0.24058
 O705 O 0.19979 0.72711 0.25158
 O706 O 0.21946 0.77472 0.21414
 C707 C 0.35282 0.74844 0.29643
 C708 C 0.30755 0.84809 0.26116
 C709 C 0.26168 0.72842 0.35361
 O710 O 0.25874 0.65709 0.29891
 O711 O 0.20355 0.66174 0.26891
 O712 O 0.19758 0.67186 0.21404
 C713 C 0.19235 0.65336 0.24032
 O714 O 0.19225 0.82100 0.29619
 Zr715 Zr 0.19666 0.78110 0.26005
 O716 O 0.17256 0.72895 0.19365
 O717 O 0.18663 0.70003 0.31396
 O718 O 0.15583 0.76611 0.29246
 O719 O 0.17863 0.82789 0.23757
 O720 O 0.15284 0.76782 0.23217
 C721 C 0.14892 0.74762 0.20745
 O722 O 0.23948 0.68204 0.17152
 O723 O 0.31758 0.80157 0.18845
 O724 O 0.22895 0.74144 0.15755
 O725 O 0.26132 0.79142 0.16417
 O726 O 0.34991 0.73487 0.21157
 O727 O 0.31348 0.68391 0.20042
 C728 C 0.24477 0.76915 0.14649
 H729 H 0.32641 0.78345 0.24786
 H730 H 0.25948 0.67023 0.23578
 H731 H 0.20514 0.78639 0.19709
 H732 H 0.21638 0.76212 0.31773
 H733 H 0.34669 0.66644 0.25675
 H734 H 0.24328 0.64476 0.31467
 H735 H 0.18799 0.67756 0.32611
 H736 H 0.13519 0.78101 0.28758
 H737 H 0.36989 0.71925 0.21688
 H738 H 0.31611 0.82426 0.17666
 H739 H 0.25862 0.85340 0.18365
 H740 H 0.15335 0.83027 0.24275
 H741 H 0.33637 0.67184 0.20245
 H742 H 0.21874 0.67775 0.15740
 H743 H 0.28390 0.82106 0.34400
 H744 H 0.16773 0.82945 0.29715
 Zr745 Zr 0.22157 0.77911 0.70544
 O746 O 0.23688 0.81661 0.67000
 O747 O 0.16998 0.76969 0.69193
 O748 O 0.22410 0.75714 0.65711
 O749 O 0.20391 0.83996 0.76739
 O750 O 0.25440 0.70598 0.66417
 O751 O 0.19626 0.82881 0.71284
 O752 O 0.15118 0.72758 0.72780
 O753 O 0.21596 0.72489 0.71312
 O754 O 0.19707 0.77247 0.75099
 O755 O 0.27249 0.75805 0.70382
 O756 O 0.25378 0.80491 0.73986
 Zr757 Zr 0.27533 0.72062 0.79381
 Zr758 Zr 0.26683 0.70442 0.71397
 Zr759 Zr 0.23000 0.79541 0.78539
 Zr760 Zr 0.19336 0.71880 0.75942
 O761 O 0.25679 0.84129 0.80039
 O762 O 0.17874 0.66972 0.73916
 O763 O 0.22421 0.74178 0.79606
 O764 O 0.24290 0.69560 0.75940
 O765 O 0.30022 0.72715 0.74839
 O766 O 0.28056 0.77477 0.78584
 C767 C 0.14719 0.74848 0.70356
 C768 C 0.19247 0.84813 0.73882
 C769 C 0.23834 0.72845 0.64637
 O770 O 0.24127 0.65714 0.70107
 O771 O 0.29647 0.66178 0.73107
 O772 O 0.30244 0.67191 0.78594
 C773 C 0.30767 0.65340 0.75966
 O774 O 0.30776 0.82104 0.70378
 Zr775 Zr 0.30335 0.78114 0.73992
 O776 O 0.32745 0.72900 0.80633
 O777 O 0.31338 0.70008 0.68602
 O778 O 0.34418 0.76615 0.70752
 O779 O 0.32138 0.82794 0.76241
 O780 O 0.34718 0.76787 0.76781
 C781 C 0.35109 0.74767 0.79253
 O782 O 0.26054 0.68208 0.82846
 O783 O 0.18244 0.80161 0.81154
 O784 O 0.27107 0.74148 0.84243
 O785 O 0.23870 0.79146 0.83581
 O786 O 0.15011 0.73491 0.78842
 O787 O 0.18654 0.68395 0.79956
 C788 C 0.25525 0.76919 0.85349
 H789 H 0.17360 0.78349 0.75213
 H790 H 0.24054 0.67027 0.76420
 H791 H 0.29488 0.78643 0.80288
 H792 H 0.28363 0.76216 0.68225
 H793 H 0.15332 0.66648 0.74323
 H794 H 0.25673 0.64480 0.68531
 H795 H 0.31203 0.67760 0.67387
 H796 H 0.36482 0.78106 0.71240
 H797 H 0.13013 0.71928 0.78311
 H798 H 0.18390 0.82430 0.82332
 H799 H 0.24140 0.85344 0.81633
 H800 H 0.34666 0.83032 0.75722
 H801 H 0.16365 0.67188 0.79753
 H802 H 0.28129 0.67779 0.84258
 H803 H 0.21610 0.82109 0.65598
 H804 H 0.33228 0.82949 0.70282
 Zr805 Zr 0.27843 0.22089 0.20544
 O806 O 0.26312 0.18339 0.17000
 O807 O 0.33002 0.23031 0.19193
 O808 O 0.27590 0.24286 0.15711
 O809 O 0.29609 0.16004 0.26739
 O810 O 0.24560 0.29402 0.16417
 O811 O 0.30374 0.17119 0.21284
 O812 O 0.34882 0.27242 0.22780
 O813 O 0.28404 0.27511 0.21312
 O814 O 0.30293 0.22753 0.25099
 O815 O 0.22751 0.24195 0.20382
 O816 O 0.24622 0.19509 0.23986
 Zr817 Zr 0.22467 0.27938 0.29381
 Zr818 Zr 0.23317 0.29558 0.21397
 Zr819 Zr 0.27000 0.20459 0.28539
 Zr820 Zr 0.30664 0.28120 0.25942
 O821 O 0.24321 0.15871 0.30040
 O822 O 0.32127 0.33028 0.23916
 O823 O 0.27579 0.25822 0.29606
 O824 O 0.25710 0.30440 0.25940
 O825 O 0.19978 0.27285 0.24839
 O826 O 0.21944 0.22523 0.28584
 C827 C 0.35281 0.25152 0.20356
 C828 C 0.30753 0.15187 0.23882
 C829 C 0.26167 0.27155 0.14637
 O830 O 0.25873 0.34287 0.20107
 O831 O 0.20353 0.33822 0.23107
 O832 O 0.19756 0.32810 0.28594
 C833 C 0.19233 0.34660 0.25966
 O834 O 0.19224 0.17896 0.20378
 Zr835 Zr 0.19665 0.21886 0.23992
 O836 O 0.17255 0.27100 0.30633
 O837 O 0.18662 0.29993 0.18601
 O838 O 0.15582 0.23385 0.20751
 O839 O 0.17862 0.17206 0.26241
 O840 O 0.15283 0.23213 0.26781
 C841 C 0.14891 0.25233 0.29253
 O842 O 0.23946 0.31792 0.32846
 O843 O 0.31756 0.19839 0.31154
 O844 O 0.22893 0.25852 0.34243
 O845 O 0.26130 0.20854 0.33581
 O846 O 0.34989 0.26509 0.28842
 O847 O 0.31347 0.31605 0.29956
 C848 C 0.24475 0.23081 0.35349
 H849 H 0.32640 0.21651 0.25213
 H850 H 0.25946 0.32973 0.26420
 H851 H 0.20512 0.21357 0.30288
 H852 H 0.21637 0.23784 0.18225
 H853 H 0.34668 0.33352 0.24323
 H854 H 0.24327 0.35520 0.18531
 H855 H 0.18798 0.32240 0.17387
 H856 H 0.13518 0.21894 0.21240
 H857 H 0.36987 0.28071 0.28311
 H858 H 0.31610 0.17570 0.32332
 H859 H 0.25860 0.14656 0.31633
 H860 H 0.15334 0.16968 0.25722
 H861 H 0.33635 0.32812 0.29753
 H862 H 0.21872 0.32221 0.34257
 H863 H 0.28390 0.17891 0.15598
 H864 H 0.16772 0.17051 0.20282
 Zr865 Zr 0.72156 0.72093 0.29454
 O866 O 0.73687 0.68343 0.32998
 O867 O 0.66997 0.73035 0.30805
 O868 O 0.72409 0.74290 0.34286
 O869 O 0.70390 0.66008 0.23258
 O870 O 0.75439 0.79406 0.33581
 O871 O 0.69625 0.67123 0.28713
 O872 O 0.65117 0.77246 0.27218
 O873 O 0.71595 0.77515 0.28686
 O874 O 0.69706 0.72757 0.24899
 O875 O 0.77248 0.74199 0.29616
 O876 O 0.75377 0.69513 0.26012
 Zr877 Zr 0.77532 0.77942 0.20617
 Zr878 Zr 0.76682 0.79562 0.28601
 Zr879 Zr 0.72999 0.70463 0.21459
 Zr880 Zr 0.69335 0.78124 0.24056
 O881 O 0.75678 0.65875 0.19958
 O882 O 0.67873 0.83033 0.26082
 O883 O 0.72420 0.75826 0.20392
 O884 O 0.74289 0.80444 0.24058
 O885 O 0.80021 0.77289 0.25158
 O886 O 0.78055 0.72527 0.21414
 C887 C 0.64718 0.75156 0.29642
 C888 C 0.69245 0.65191 0.26116
 C889 C 0.73832 0.77159 0.35361
 O890 O 0.74126 0.84291 0.29891
 O891 O 0.79646 0.83826 0.26891
 O892 O 0.80243 0.82814 0.21404
 C893 C 0.80766 0.84664 0.24032
 O894 O 0.80774 0.67900 0.29620
 Zr895 Zr 0.80334 0.71890 0.26006
 O896 O 0.82744 0.77105 0.19365
 O897 O 0.81337 0.79997 0.31396
 O898 O 0.84417 0.73389 0.29247
 O899 O 0.82137 0.67210 0.23757
 O900 O 0.84717 0.73218 0.23218
 C901 C 0.85108 0.75238 0.20745
 O902 O 0.76053 0.81796 0.17152
 O903 O 0.68243 0.69843 0.18844
 O904 O 0.77106 0.75856 0.15755
 O905 O 0.73869 0.70858 0.16417
 O906 O 0.65010 0.76513 0.21156
 O907 O 0.68653 0.81609 0.20041
 C908 C 0.75524 0.73085 0.14649
 H909 H 0.67359 0.71656 0.24785
 H910 H 0.74053 0.82977 0.23577
 H911 H 0.79487 0.71361 0.19710
 H912 H 0.78362 0.73788 0.31773
 H913 H 0.65331 0.83356 0.25674
 H914 H 0.75672 0.85524 0.31467
 H915 H 0.81201 0.82244 0.32611
 H916 H 0.86481 0.71898 0.28758
 H917 H 0.63012 0.78076 0.21687
 H918 H 0.68389 0.67575 0.17666
 H919 H 0.74139 0.64660 0.18365
 H920 H 0.84665 0.66972 0.24276
 H921 H 0.66364 0.82816 0.20244
 H922 H 0.78128 0.82225 0.15740
 H923 H 0.71609 0.67895 0.34400
 H924 H 0.83227 0.67055 0.29716
 Zr925 Zr 0.77844 0.27907 0.79454
 O926 O 0.76312 0.31657 0.82998
 O927 O 0.83002 0.26965 0.80806
 O928 O 0.77591 0.25711 0.84286
 O929 O 0.79610 0.33992 0.73258
 O930 O 0.74560 0.20594 0.83581
 O931 O 0.80375 0.32877 0.78714
 O932 O 0.84883 0.22754 0.77219
 O933 O 0.78405 0.22485 0.78686
 O934 O 0.80294 0.27243 0.74899
 O935 O 0.72752 0.25801 0.79616
 O936 O 0.74623 0.30487 0.76012
 Zr937 Zr 0.72469 0.22058 0.70616
 Zr938 Zr 0.73318 0.20438 0.78601
 Zr939 Zr 0.77001 0.29537 0.71459
 Zr940 Zr 0.80666 0.21876 0.74057
 O941 O 0.74322 0.34125 0.69958
 O942 O 0.82128 0.16968 0.76082
 O943 O 0.77581 0.24174 0.70392
 O944 O 0.75711 0.19556 0.74058
 O945 O 0.69979 0.22711 0.75158
 O946 O 0.71946 0.27472 0.71414
 C947 C 0.85282 0.24844 0.79643
 C948 C 0.80754 0.34809 0.76116
 C949 C 0.76167 0.22842 0.85361
 O950 O 0.75874 0.15709 0.79891
 O951 O 0.70354 0.16174 0.76891
 O952 O 0.69757 0.17186 0.71404
 C953 C 0.69234 0.15336 0.74032
 O954 O 0.69225 0.32100 0.79619
 Zr955 Zr 0.69666 0.28110 0.76005
 O956 O 0.67256 0.22895 0.69364
 O957 O 0.68662 0.20003 0.81396
 O958 O 0.65583 0.26611 0.79246
 O959 O 0.67863 0.32789 0.73756
 O960 O 0.65284 0.26782 0.73217
 C961 C 0.64892 0.24762 0.70744
 O962 O 0.73948 0.18204 0.67152
 O963 O 0.81758 0.30157 0.68845
 O964 O 0.72895 0.24144 0.65755
 O965 O 0.76132 0.29142 0.66417
 O966 O 0.84991 0.23487 0.71157
 O967 O 0.81348 0.18391 0.70042
 C968 C 0.74477 0.26915 0.64649
 H969 H 0.82641 0.28344 0.74786
 H970 H 0.75948 0.17023 0.73578
 H971 H 0.70514 0.28639 0.69709
 H972 H 0.71638 0.26212 0.81772
 H973 H 0.84669 0.16644 0.75675
 H974 H 0.74328 0.14476 0.81467
 H975 H 0.68798 0.17756 0.82611
 H976 H 0.63519 0.28101 0.78757
 H977 H 0.86988 0.21924 0.71688
 H978 H 0.81611 0.32425 0.67666
 H979 H 0.75862 0.35340 0.68365
 H980 H 0.65335 0.33027 0.74275
 H981 H 0.83637 0.17184 0.70245
 H982 H 0.71874 0.17775 0.65740
 H983 H 0.78390 0.32106 0.84400
 H984 H 0.66772 0.32945 0.79715
 C985 C 0.42362 1.00060 0.27956
 C986 C 0.44113 0.99884 0.30440
 C987 C 0.45951 0.99585 0.33470
 C988 C 0.47197 0.99411 0.36203
 C989 C -0.07638 0.50060 0.77956
 C990 C -0.05888 0.49884 0.80439
 C991 C -0.04050 0.49585 0.83470
 C992 C -0.02804 0.49410 0.86203
 C993 C 0.07638 -0.00060 0.77956
 C994 C 0.05888 0.00116 0.80440
 C995 C 0.04050 0.00415 0.83470
 C996 C 0.02804 0.00589 0.86203
 C997 C 0.57638 0.49940 0.27956
 C998 C 0.55888 0.50116 0.30439
 C999 C 0.54050 0.50415 0.33470
 C1000 C 0.52804 0.50590 0.36203
 C1001 C 0.57637 0.50063 0.22044
 C1002 C 0.55885 0.49886 0.19562
 C1003 C 0.54047 0.49587 0.16532
 C1004 C 0.52800 0.49412 0.13799
 C1005 C 0.07637 1.00063 0.72044
 C1006 C 0.05885 0.99886 0.69562
 C1007 C 0.04046 0.99587 0.66532
 C1008 C 0.02800 0.99412 0.63799
 C1009 C -0.07637 0.49937 0.72044
 C1010 C -0.05885 0.50114 0.69562
 C1011 C -0.04047 0.50413 0.66531
 C1012 C -0.02800 0.50588 0.63799
 C1013 C 0.42363 -0.00063 0.22044
 C1014 C 0.44115 0.00114 0.19562
 C1015 C 0.45954 0.00413 0.16532
 C1016 C 0.47200 0.00588 0.13799
 C1017 C 0.28245 0.37260 0.00127
 C1018 C 0.30982 0.38896 0.00451
 C1019 C 0.34246 0.40731 0.00884
 C1020 C 0.37034 0.42294 0.01108
 C1021 C -0.21755 0.87260 0.50127
 C1022 C -0.19018 0.88896 0.50451
 C1023 C -0.15754 0.90731 0.50884
 C1024 C -0.12966 0.92294 0.51108
 C1025 C -0.21751 0.12740 0.99874
 C1026 C -0.19014 0.11105 0.99551
 C1027 C -0.15749 0.09270 0.99118
 C1028 C -0.12961 0.07707 0.98894
 C1029 C 0.28249 0.62740 0.49874
 C1030 C 0.30986 0.61105 0.49551
 C1031 C 0.34251 0.59270 0.49118
 C1032 C 0.37038 0.57707 0.48894
 C1033 C 0.21755 0.62740 0.50127
 C1034 C 0.19018 0.61104 0.50451
 C1035 C 0.15754 0.59269 0.50884
 C1036 C 0.12966 0.57706 0.51108
 C1037 C 0.71755 0.12740 0.00127
 C1038 C 0.69018 0.11104 0.00451
 C1039 C 0.65754 0.09269 0.00884
 C1040 C 0.62966 0.07706 0.01108
 C1041 C 0.71751 0.87260 0.49874
 C1042 C 0.69014 0.88896 0.49551
 C1043 C 0.65750 0.90730 0.49118
 C1044 C 0.62962 0.92293 0.48894
 C1045 C 0.21751 0.37260 0.99874
 C1046 C 0.19014 0.38896 0.99551
 C1047 C 0.15750 0.40730 0.99118
 C1048 C 0.12962 0.42293 0.98894
 C1049 C -0.00045 0.28048 0.39152
 C1050 C -0.00009 0.30634 0.40749
 C1051 C 0.00079 0.33719 0.42473
 C1052 C 0.00144 0.36445 0.43843
 C1053 C 0.49954 -0.21951 -0.10848
 C1054 C 0.49990 -0.19366 -0.09251
 C1055 C 0.50079 -0.16280 -0.07527
 C1056 C 0.50143 -0.13554 -0.06158
 C1057 C 0.00048 -0.21951 1.10849
 C1058 C 0.00014 -0.19365 1.09252
 C1059 C -0.00074 -0.16280 1.07529
 C1060 C -0.00138 -0.13553 1.06160
 C1061 C 0.50048 0.28048 0.60849
 C1062 C 0.50013 0.30634 0.59252
 C1063 C 0.49925 0.33720 0.57528
 C1064 C 0.49861 0.36446 0.56159
 C1065 C 0.49951 1.21951 0.60849
 C1066 C 0.49985 1.19365 0.59252
 C1067 C 0.50073 1.16280 0.57528
 C1068 C 0.50137 1.13553 0.56160
 C1069 C -0.00048 0.71952 1.10848
 C1070 C -0.00014 0.69366 1.09251
 C1071 C 0.00074 0.66280 1.07528
 C1072 C 0.00138 0.63554 1.06159
 C1073 C 0.50046 0.71952 -0.10848
 C1074 C 0.50009 0.69366 -0.09251
 C1075 C 0.49921 0.66281 -0.07527
 C1076 C 0.49856 0.63555 -0.06158
 C1077 C 0.00046 1.21951 0.39152
 C1078 C 0.00010 1.19366 0.40749
 C1079 C -0.00079 1.16280 0.42473
 C1080 C -0.00143 1.13554 0.43842
 C1081 C 0.75060 0.67361 0.97044
 C1082 C 0.74884 0.69112 0.94560
 C1083 C 0.74585 0.70950 0.91530
 C1084 C 0.74410 0.72196 0.88797
 C1085 C 0.25060 0.17361 0.47044
 C1086 C 0.24884 0.19112 0.44560
 C1087 C 0.24585 0.20950 0.41530
 C1088 C 0.24410 0.22196 0.38797
 C1089 C 0.74940 0.32639 0.47044
 C1090 C 0.75116 0.30888 0.44560
 C1091 C 0.75415 0.29050 0.41530
 C1092 C 0.75590 0.27804 0.38797
 C1093 C 0.24940 0.82639 0.97044
 C1094 C 0.25116 0.80888 0.94560
 C1095 C 0.25415 0.79050 0.91530
 C1096 C 0.25590 0.77804 0.88797
 C1097 C 0.25063 0.82638 0.02956
 C1098 C 0.24886 0.80886 0.05438
 C1099 C 0.24587 0.79047 0.08469
 C1100 C 0.24412 0.77800 0.11201
 C1101 C 0.75063 0.32638 0.52956
 C1102 C 0.74886 0.30886 0.55438
 C1103 C 0.74587 0.29047 0.58468
 C1104 C 0.74412 0.27800 0.61201
 C1105 C 0.24938 0.17362 0.52956
 C1106 C 0.25114 0.19114 0.55438
 C1107 C 0.25414 0.20953 0.58469
 C1108 C 0.25589 0.22199 0.61201
 C1109 C 0.74938 0.67362 0.02956
 C1110 C 0.75114 0.69114 0.05438
 C1111 C 0.75414 0.70953 0.08469
 C1112 C 0.75589 0.72199 0.11201
 C1113 C 0.12259 0.53245 0.24873
 C1114 C 0.13895 0.55982 0.24549
 C1115 C 0.15730 0.59247 0.24116
 C1116 C 0.17293 0.62034 0.23892
 C1117 C 0.62259 0.03245 0.74873
 C1118 C 0.63895 0.05982 0.74549
 C1119 C 0.65730 0.09246 0.74116
 C1120 C 0.67293 0.12034 0.73892
 C1121 C 0.87742 0.03249 0.25126
 C1122 C 0.86106 0.05986 0.25450
 C1123 C 0.84271 0.09251 0.25882
 C1124 C 0.82708 0.12038 0.26106
 C1125 C 0.37741 0.53249 0.75126
 C1126 C 0.36106 0.55986 0.75449
 C1127 C 0.34271 0.59251 0.75882
 C1128 C 0.32708 0.62038 0.76106
 C1129 C 0.37741 0.46755 0.74873
 C1130 C 0.36105 0.44018 0.74549
 C1131 C 0.34270 0.40753 0.74116
 C1132 C 0.32707 0.37966 0.73892
 C1133 C 0.87741 0.96755 0.24873
 C1134 C 0.86105 0.94018 0.24549
 C1135 C 0.84270 0.90753 0.24116
 C1136 C 0.82707 0.87966 0.23892
 C1137 C 0.62259 0.96751 0.75126
 C1138 C 0.63894 0.94014 0.75449
 C1139 C 0.65729 0.90749 0.75882
 C1140 C 0.67292 0.87961 0.76106
 C1141 C 0.12259 0.46751 0.25126
 C1142 C 0.13894 0.44014 0.25449
 C1143 C 0.15729 0.40749 0.25882
 C1144 C 0.17292 0.37962 0.26106
 C1145 C 0.03048 0.24955 0.85846
 C1146 C 0.05634 0.24991 0.84249
 C1147 C 0.08719 0.25080 0.82525
 C1148 C 0.11445 0.25145 0.81156
 C1149 C 0.53048 0.74954 0.35846
 C1150 C 0.55634 0.74991 0.34249
 C1151 C 0.58719 0.75080 0.32525
 C1152 C 0.61446 0.75145 0.31156
 C1153 C 0.53048 0.25048 0.14153
 C1154 C 0.55635 0.25014 0.15750
 C1155 C 0.58720 0.24925 0.17473
 C1156 C 0.61447 0.24861 0.18842
 C1157 C 0.03048 0.75048 0.64154
 C1158 C 0.05634 0.75013 0.65751
 C1159 C 0.08720 0.74925 0.67474
 C1160 C 0.11446 0.74860 0.68842
 C1161 C 0.96952 0.74952 0.64153
 C1162 C 0.94365 0.74986 0.65750
 C1163 C 0.91280 0.75074 0.67473
 C1164 C 0.88553 0.75139 0.68842
 C1165 C 0.46952 0.24952 0.14154
 C1166 C 0.44366 0.24987 0.15751
 C1167 C 0.41280 0.25075 0.17474
 C1168 C 0.38554 0.25139 0.18842
 C1169 C 0.46952 0.75046 0.35846
 C1170 C 0.44366 0.75009 0.34250
 C1171 C 0.41281 0.74920 0.32526
 C1172 C 0.38554 0.74856 0.31157
 C1173 C 0.96952 0.25046 0.85846
 C1174 C 0.94366 0.25010 0.84250
 C1175 C 0.91280 0.24921 0.82526
 C1176 C 0.88554 0.24856 0.81157
 C1177 C 0.57812 1.00084 0.72044
 C1178 C 0.56081 1.00420 0.69564
 C1179 C 0.54273 1.00907 0.66539
 C1180 C 0.53045 1.01199 0.63809
 C1181 C 0.07812 0.50085 1.22044
 C1182 C 0.06081 0.50421 1.19564
 C1183 C 0.04274 0.50908 1.16539
 C1184 C 0.03045 0.51199 1.13809
 C1185 C -0.07812 -0.00084 1.22044
 C1186 C -0.06081 -0.00420 1.19564
 C1187 C -0.04273 -0.00907 1.16539
 C1188 C -0.03045 -0.01199 1.13809
 C1189 C 0.42188 0.49915 0.72044
 C1190 C 0.43919 0.49580 0.69564
 C1191 C 0.45726 0.49093 0.66539
 C1192 C 0.46955 0.48801 0.63809
 C1193 C 0.42187 0.50087 -0.22044
 C1194 C 0.43917 0.50423 -0.19563
 C1195 C 0.45723 0.50909 -0.16538
 C1196 C 0.46951 0.51201 -0.13807
 C1197 C -0.07813 1.00087 0.27956
 C1198 C -0.06083 1.00423 0.30437
 C1199 C -0.04277 1.00909 0.33462
 C1200 C -0.03049 1.01200 0.36193
 C1201 C 0.07814 0.49913 0.27956
 C1202 C 0.06083 0.49577 0.30437
 C1203 C 0.04277 0.49091 0.33462
 C1204 C 0.03049 0.48799 0.36193
 C1205 C 0.57813 -0.00087 -0.22043
 C1206 C 0.56083 -0.00423 -0.19563
 C1207 C 0.54277 -0.00909 -0.16537
 C1208 C 0.53049 -0.01200 -0.13807
 C1209 C 0.71775 0.62895 -0.00233
 C1210 C 0.69082 0.61203 -0.00598
 C1211 C 0.65872 0.59289 -0.01048
 C1212 C 0.63114 0.57680 -0.01270
 C1213 C 0.21775 1.12895 0.49768
 C1214 C 0.19082 1.11203 0.49402
 C1215 C 0.15872 1.09289 0.48952
 C1216 C 0.13114 1.07680 0.48730
 C1217 C 0.21779 -0.12894 1.00233
 C1218 C 0.19086 -0.11202 1.00600
 C1219 C 0.15876 -0.09288 1.01050
 C1220 C 0.13118 -0.07679 1.01272
 C1221 C 0.71779 0.37106 0.50233
 C1222 C 0.69086 0.38797 0.50600
 C1223 C 0.65876 0.40712 0.51050
 C1224 C 0.63118 0.42321 0.51272
 C1225 C -0.21775 0.37105 0.49767
 C1226 C -0.19082 0.38797 0.49402
 C1227 C -0.15872 0.40711 0.48952
 C1228 C -0.13114 0.42320 0.48730
 C1229 C 0.28225 -0.12895 -0.00233
 C1230 C 0.30918 -0.11203 -0.00598
 C1231 C 0.34128 -0.09289 -0.01048
 C1232 C 0.36886 -0.07680 -0.01270
 C1233 C 0.28221 1.12894 0.50233
 C1234 C 0.30914 1.11202 0.50600
 C1235 C 0.34124 1.09288 0.51050
 C1236 C 0.36882 1.07679 0.51272
 C1237 C -0.21779 0.62894 1.00233
 C1238 C -0.19086 0.61202 1.00600
 C1239 C -0.15876 0.59288 1.01050
 C1240 C -0.13118 0.57679 1.01272
 C1241 C 0.00083 0.71952 0.60128
 C1242 C 0.00191 0.69346 0.58565
 C1243 C 0.00299 0.66216 0.56921
 C1244 C 0.00324 0.63439 0.55646
 C1245 C 0.50083 0.21952 0.10128
 C1246 C 0.50191 0.19346 0.08566
 C1247 C 0.50299 0.16216 0.06921
 C1248 C 0.50324 0.13439 0.05646
 C1249 C -0.00081 0.21952 0.89871
 C1250 C -0.00186 0.19346 0.91434
 C1251 C -0.00294 0.16216 0.93079
 C1252 C -0.00318 0.13440 0.94355
 C1253 C 0.49920 0.71952 0.39872
 C1254 C 0.49814 0.69346 0.41435
 C1255 C 0.49707 0.66216 0.43080
 C1256 C 0.49682 0.63440 0.44355
 C1257 C 0.50082 0.78048 0.39872
 C1258 C 0.50187 0.80654 0.41435
 C1259 C 0.50295 0.83784 0.43080
 C1260 C 0.50319 0.86560 0.44355
 C1261 C 0.00081 0.28048 0.89872
 C1262 C 0.00187 0.30654 0.91435
 C1263 C 0.00294 0.33784 0.93080
 C1264 C 0.00319 0.36560 0.94356
 C1265 C 0.49917 0.28048 0.10128
 C1266 C 0.49809 0.30654 0.08565
 C1267 C 0.49701 0.33784 0.06921
 C1268 C 0.49676 0.36561 0.05646
 C1269 C -0.00083 0.78048 0.60128
 C1270 C -0.00191 0.80654 0.58566
 C1271 C -0.00299 0.83784 0.56922
 C1272 C -0.00324 0.86561 0.55647
 C1273 C 0.25085 0.32813 0.02956
 C1274 C 0.25421 0.31082 0.05436
 C1275 C 0.25908 0.29275 0.08461
 C1276 C 0.26200 0.28046 0.11191
 C1277 C 0.75085 0.82813 0.52956
 C1278 C 0.75420 0.81082 0.55436
 C1279 C 0.75907 0.79275 0.58461
 C1280 C 0.76199 0.78046 0.61191
 C1281 C 0.24915 0.67187 0.52956
 C1282 C 0.24579 0.68918 0.55436
 C1283 C 0.24092 0.70725 0.58461
 C1284 C 0.23801 0.71954 0.61191
 C1285 C 0.74916 0.17187 0.02956
 C1286 C 0.74580 0.18918 0.05436
 C1287 C 0.74093 0.20726 0.08461
 C1288 C 0.73801 0.21954 0.11191
 C1289 C 0.75087 0.17186 0.97044
 C1290 C 0.75423 0.18916 0.94563
 C1291 C 0.75909 0.20722 0.91538
 C1292 C 0.76200 0.21950 0.88807
 C1293 C 0.25087 0.67186 0.47044
 C1294 C 0.25423 0.68916 0.44563
 C1295 C 0.25909 0.70722 0.41538
 C1296 C 0.26201 0.71950 0.38807
 C1297 C 0.74913 0.82815 0.47043
 C1298 C 0.74577 0.81084 0.44563
 C1299 C 0.74090 0.79278 0.41537
 C1300 C 0.73799 0.78050 0.38807
 C1301 C 0.24913 0.32815 0.97044
 C1302 C 0.24577 0.31084 0.94563
 C1303 C 0.24090 0.29278 0.91537
 C1304 C 0.23799 0.28050 0.88807
 C1305 C 0.87896 0.46775 0.75233
 C1306 C 0.86204 0.44082 0.75598
 C1307 C 0.84290 0.40872 0.76048
 C1308 C 0.82681 0.38113 0.76270
 C1309 C 0.37896 0.96775 0.25233
 C1310 C 0.36204 0.94082 0.25599
 C1311 C 0.34290 0.90872 0.26048
 C1312 C 0.32681 0.88114 0.26270
 C1313 C 0.12105 0.96779 0.74767
 C1314 C 0.13797 0.94086 0.74400
 C1315 C 0.15711 0.90876 0.73950
 C1316 C 0.17320 0.88117 0.73728
 C1317 C 0.62105 0.46779 0.24766
 C1318 C 0.63797 0.44086 0.24400
 C1319 C 0.65711 0.40876 0.23950
 C1320 C 0.67320 0.38118 0.23728
 C1321 C 0.62104 0.53225 0.25233
 C1322 C 0.63796 0.55918 0.25598
 C1323 C 0.65710 0.59128 0.26048
 C1324 C 0.67319 0.61887 0.26270
 C1325 C 0.12104 0.03225 0.75233
 C1326 C 0.13796 0.05918 0.75599
 C1327 C 0.15710 0.09128 0.76048
 C1328 C 0.17319 0.11887 0.76270
 C1329 C 0.37895 0.03221 0.24767
 C1330 C 0.36204 0.05914 0.24400
 C1331 C 0.34289 0.09124 0.23950
 C1332 C 0.32680 0.11883 0.23728
 C1333 C 0.87895 0.53221 0.74766
 C1334 C 0.86203 0.55914 0.74400
 C1335 C 0.84289 0.59124 0.73950
 C1336 C 0.82680 0.61882 0.73728
 C1337 C 0.96952 0.75083 0.14874
 C1338 C 0.94347 0.75190 0.16437
 C1339 C 0.91216 0.75298 0.18081
 C1340 C 0.88439 0.75323 0.19356
 C1341 C 0.46952 0.25083 0.64875
 C1342 C 0.44346 0.25191 0.66437
 C1343 C 0.41216 0.25299 0.68082
 C1344 C 0.38439 0.25323 0.69356
 C1345 C 0.46952 0.74919 0.85126
 C1346 C 0.44347 0.74814 0.83563
 C1347 C 0.41216 0.74707 0.81918
 C1348 C 0.38440 0.74683 0.80643
 C1349 C 0.96952 0.24919 0.35126
 C1350 C 0.94347 0.24814 0.33564
 C1351 C 0.91216 0.24707 0.31919
 C1352 C 0.88440 0.24682 0.30644
 C1353 C 0.03048 0.25081 0.35126
 C1354 C 0.05654 0.25187 0.33563
 C1355 C 0.08784 0.25294 0.31918
 C1356 C 0.11560 0.25318 0.30643
 C1357 C 0.53048 0.75081 0.85126
 C1358 C 0.55654 0.75187 0.83564
 C1359 C 0.58784 0.75294 0.81919
 C1360 C 0.61560 0.75318 0.80644
 C1361 C 0.53048 0.24916 0.64874
 C1362 C 0.55654 0.24809 0.66436
 C1363 C 0.58785 0.24701 0.68080
 C1364 C 0.61561 0.24677 0.69354
 C1365 C 0.03048 0.74916 0.14874
 C1366 C 0.05654 0.74809 0.16436
 C1367 C 0.08785 0.74701 0.18080
 C1368 C 0.11561 0.74677 0.19355
   
