data_POSCAR
  _audit_creation_date              2014-09-24
  _audit_creation_method            'ToBaCCo'
  _symmetry_space_group_name_H-M    'P1'
  _symmetry_Int_Tables_number       1
  _symmetry_cell_setting            triclinic
  loop_
  _symmetry_equiv_pos_as_xyz
 x,y,z
_cell_length_a 60.5811
_cell_length_b 60.6396
_cell_length_c 53.0967
_cell_angle_alpha 90.065700
_cell_angle_beta 90.006200
_cell_angle_gamma 89.922100
loop_
  _atom_site_label
  _atom_site_type_symbol
  _atom_site_fract_x
  _atom_site_fract_y
  _atom_site_fract_z
C1 C -0.06859 0.26857 -0.00992
 C2 C -0.06865 0.26815 0.01588
 C3 C -0.04785 0.27495 0.02372
 N4 N -0.03537 0.27999 0.00340
 C5 C -0.04794 0.27602 -0.01712
 C6 C -0.04136 0.27865 0.04911
 C7 C -0.01937 0.28436 0.05595
 C8 C -0.01252 0.29051 0.07995
 C9 C 0.01012 0.29173 0.07947
 C10 C 0.01665 0.28613 0.05530
 N11 N -0.00135 0.28166 0.04113
 C12 C 0.03877 0.28266 0.04781
 C13 C 0.04534 0.27968 0.02252
 C14 C 0.06598 0.27234 0.01503
 C15 C 0.06593 0.27233 -0.01076
 C16 C 0.04546 0.28027 -0.01827
 N17 N 0.03285 0.28465 0.00218
 C18 C 0.03871 0.28373 -0.04357
 C19 C 0.01619 0.28732 -0.04977
 C20 C 0.00877 0.29716 -0.07181
 C21 C -0.01387 0.29623 -0.07138
 C22 C -0.01973 0.28612 -0.04897
 N23 N -0.00134 0.28085 -0.03579
 C24 C -0.04159 0.28070 -0.04214
 H25 H -0.08238 0.26434 -0.02193
 H26 H -0.08274 0.26387 0.02736
 H27 H -0.00073 0.27108 -0.01970
 H28 H -0.02250 0.29292 0.09660
 H29 H 0.02058 0.29538 0.09546
 H30 H 0.07960 0.26724 0.02686
 H31 H 0.07943 0.26683 -0.02254
 H32 H -0.02480 0.30228 -0.08596
 H33 H -0.00100 0.27416 0.02357
 H34 H 0.01866 0.30421 -0.08673
 C35 C 0.43160 0.77354 0.48607
 C36 C 0.43195 0.77380 0.51188
 C37 C 0.45366 0.77750 0.51898
 N38 N 0.46648 0.77977 0.49831
 C39 C 0.45312 0.77708 0.47815
 C40 C 0.46096 0.77968 0.54419
 C41 C 0.48330 0.78255 0.55138
 C42 C 0.49026 0.78772 0.57557
 C43 C 0.51294 0.78779 0.57520
 C44 C 0.51932 0.78265 0.55079
 N45 N 0.50114 0.77928 0.53650
 C46 C 0.54150 0.77987 0.54289
 C47 C 0.54813 0.77761 0.51746
 C48 C 0.56966 0.77387 0.50965
 C49 C 0.56931 0.77350 0.48384
 C50 C 0.54759 0.77703 0.47664
 N51 N 0.53476 0.77981 0.49723
 C52 C 0.54029 0.77859 0.45138
 C53 C 0.51794 0.78126 0.44411
 C54 C 0.51098 0.78583 0.41978
 C55 C 0.48830 0.78587 0.42014
 C56 C 0.48192 0.78132 0.44468
 N57 N 0.50011 0.77832 0.45907
 C58 C 0.45975 0.77873 0.45266
 H59 H 0.41708 0.77123 0.47450
 H60 H 0.41774 0.77172 0.52400
 H61 H 0.50035 0.77211 0.47719
 H62 H 0.48010 0.79083 0.59196
 H63 H 0.52348 0.79094 0.59125
 H64 H 0.58418 0.77183 0.52128
 H65 H 0.58352 0.77112 0.47179
 H66 H 0.47776 0.78862 0.40398
 H67 H 0.50092 0.77262 0.51857
 H68 H 0.52113 0.78855 0.40331
 C69 C 1.06713 0.70682 -0.01306
 C70 C 1.06659 0.70683 0.01270
 C71 C 1.04654 0.71605 0.01964
 N72 N 1.03467 0.72150 -0.00106
 C73 C 1.04743 0.71612 -0.02110
 C74 C 1.03986 0.72010 0.04480
 C75 C 1.01728 0.72302 0.05109
 C76 C 1.00950 0.73253 0.07319
 C77 C 0.98688 0.73122 0.07248
 C78 C 0.98140 0.72130 0.04981
 N79 N 1.00000 0.71636 0.03684
 C80 C 0.95966 0.71635 0.04213
 C81 C 0.95394 0.71225 0.01684
 C82 C 0.93332 0.70543 0.00866
 C83 C 0.93386 0.70594 -0.01716
 C84 C 0.95480 0.71301 -0.02382
 N85 N 0.96706 0.71683 -0.00303
 C86 C 0.96160 0.71800 -0.04854
 C87 C 0.98373 0.72276 -0.05482
 C88 C 0.99035 0.73304 -0.07684
 C89 C 1.01300 0.73392 -0.07626
 C90 C 1.01965 0.72383 -0.05404
 N91 N 1.00167 0.71722 -0.04098
 C92 C 1.04187 0.72037 -0.04659
 H93 H 1.08047 0.70052 -0.02457
 H94 H 1.07942 0.70056 0.02496
 H95 H 1.00177 0.70757 -0.02476
 H96 H 1.01908 0.73981 0.08824
 H97 H 0.97572 0.73712 0.08692
 H98 H 0.91921 0.70105 0.02011
 H99 H 0.92026 0.70202 -0.02960
 H100 H 1.02335 0.74130 -0.09054
 H101 H 1.00093 0.70707 0.02036
 H102 H 0.97993 0.73942 -0.09171
 C103 C 0.56751 0.22449 0.49081
 C104 C 0.56723 0.22480 0.51662
 C105 C 0.54553 0.22133 0.52388
 N106 N 0.53264 0.21864 0.50331
 C107 C 0.54597 0.22084 0.48305
 C108 C 0.53829 0.21975 0.54915
 C109 C 0.51595 0.21714 0.55647
 C110 C 0.50903 0.21252 0.58081
 C111 C 0.48635 0.21259 0.58051
 C112 C 0.47993 0.21725 0.55600
 N113 N 0.49809 0.22020 0.54158
 C114 C 0.45775 0.22002 0.54811
 C115 C 0.45106 0.22181 0.52264
 C116 C 0.42955 0.22558 0.51481
 C117 C 0.42983 0.22543 0.48899
 C118 C 0.45150 0.22156 0.48181
 N119 N 0.46436 0.21908 0.50243
 C120 C 0.45873 0.21945 0.45657
 C121 C 0.48103 0.21640 0.44931
 C122 C 0.48791 0.21126 0.42508
 C123 C 0.51059 0.21104 0.42538
 C124 C 0.51706 0.21606 0.44979
 N125 N 0.49892 0.21949 0.46415
 C126 C 0.53926 0.21869 0.45763
 H127 H 0.58201 0.22652 0.47914
 H128 H 0.58148 0.22711 0.52863
 H129 H 0.49878 0.22611 0.48211
 H130 H 0.51922 0.20971 0.59724
 H131 H 0.47584 0.20985 0.59667
 H132 H 0.41507 0.22798 0.52643
 H133 H 0.41561 0.22770 0.47693
 H134 H 0.52108 0.20787 0.40929
 H135 H 0.49830 0.22649 0.52348
 H136 H 0.47770 0.20829 0.40871
 C137 C 0.71124 -0.06656 -0.01546
 C138 C 0.71139 -0.06734 0.01031
 C139 C 0.72130 -0.04802 0.01850
 N140 N 0.72690 -0.03527 -0.00142
 C141 C 0.72101 -0.04677 -0.02220
 C142 C 0.72584 -0.04271 0.04398
 C143 C 0.72988 -0.02061 0.05139
 C144 C 0.74026 -0.01413 0.07352
 C145 C 0.73964 0.00852 0.07415
 C146 C 0.72923 0.01525 0.05223
 N147 N 0.72343 -0.00255 0.03838
 C148 C 0.72406 0.03728 0.04621
 C149 C 0.71885 0.04400 0.02154
 C150 C 0.70970 0.06418 0.01526
 C151 C 0.70919 0.06499 -0.01053
 C152 C 0.71849 0.04544 -0.01911
 N153 N 0.72414 0.03249 0.00057
 C154 C 0.72299 0.04024 -0.04462
 C155 C 0.72789 0.01830 -0.05209
 C156 C 0.73928 0.01249 -0.07380
 C157 C 0.74005 -0.01012 -0.07448
 C158 C 0.72912 -0.01760 -0.05319
 N159 N 0.72202 -0.00017 -0.03942
 C160 C 0.72543 -0.04008 -0.04723
 H161 H 0.70459 -0.07909 -0.02784
 H162 H 0.70480 -0.08056 0.02171
 H163 H 0.71199 -0.00092 -0.02349
 H164 H 0.74755 -0.02460 0.08777
 H165 H 0.74612 0.01886 0.08904
 H166 H 0.70407 0.07698 0.02796
 H167 H 0.70287 0.07854 -0.02166
 H168 H 0.74803 -0.01992 -0.08890
 H169 H 0.71359 -0.00243 0.02229
 H170 H 0.74660 0.02341 -0.08755
 C171 C 0.21003 0.56893 0.51551
 C172 C 0.20964 0.56932 0.48969
 C173 C 0.21581 0.54844 0.48167
 N174 N 0.21991 0.53531 0.50168
 C175 C 0.21635 0.54780 0.52239
 C176 C 0.21928 0.54234 0.45629
 C177 C 0.22296 0.52031 0.44857
 C178 C 0.23113 0.51413 0.42521
 C179 C 0.23143 0.49146 0.42475
 C180 C 0.22344 0.48441 0.44785
 N181 N 0.21819 0.50210 0.46221
 C182 C 0.22029 0.46210 0.45464
 C183 C 0.21665 0.45516 0.47967
 C184 C 0.21062 0.43399 0.48665
 C185 C 0.21055 0.43359 0.51247
 C186 C 0.21662 0.45451 0.52041
 N187 N 0.22035 0.46767 0.50032
 C188 C 0.22027 0.46066 0.54574
 C189 C 0.22382 0.48272 0.55338
 C190 C 0.23219 0.48898 0.57663
 C191 C 0.23223 0.51165 0.57707
 C192 C 0.22389 0.51862 0.55409
 N193 N 0.21868 0.50088 0.53982
 C194 C 0.22041 0.54090 0.54734
 H195 H 0.20631 0.58268 0.52782
 H196 H 0.20554 0.58345 0.47816
 H197 H 0.21000 0.50114 0.52293
 H198 H 0.23636 0.52482 0.41004
 H199 H 0.23691 0.48133 0.40916
 H200 H 0.20685 0.42022 0.47440
 H201 H 0.20671 0.41944 0.52407
 H202 H 0.23777 0.52184 0.59259
 H203 H 0.20972 0.50176 0.47923
 H204 H 0.23772 0.47834 0.59172
 C205 C 0.26483 0.93374 0.01280
 C206 C 0.26513 0.93378 -0.01301
 C207 C 0.27096 0.95496 -0.02043
 N208 N 0.27454 0.96765 0.00012
 C209 C 0.27062 0.95480 0.02039
 C210 C 0.27568 0.96157 -0.04548
 C211 C 0.28126 0.98367 -0.05170
 C212 C 0.29048 0.99052 -0.07434
 C213 C 0.29103 1.01314 -0.07386
 C214 C 0.28148 1.01970 -0.05133
 N215 N 0.27588 1.00167 -0.03778
 C216 C 0.27670 1.04185 -0.04452
 C217 C 0.27240 1.04783 -0.01916
 C218 C 0.26170 1.06696 -0.01162
 C219 C 0.26147 1.06684 0.01415
 C220 C 0.27200 1.04761 0.02161
 N221 N 0.27848 1.03584 0.00121
 C222 C 0.27573 1.04133 0.04697
 C223 C 0.27987 1.01900 0.05343
 C224 C 0.28899 1.01184 0.07598
 C225 C 0.28828 0.98920 0.07569
 C226 C 0.27928 0.98310 0.05272
 N227 N 0.27426 1.00135 0.03922
 C228 C 0.27440 0.96121 0.04557
 H229 H 0.26151 0.91957 0.02458
 H230 H 0.26226 0.91950 -0.02477
 H231 H 0.26513 1.00180 0.02262
 H232 H 0.29585 0.98053 -0.09004
 H233 H 0.29727 1.02356 -0.08877
 H234 H 0.25438 1.07953 -0.02344
 H235 H 0.25396 1.07927 0.02602
 H236 H 0.29371 0.97852 0.09078
 H237 H 0.26626 1.00181 -0.02155
 H238 H 0.29529 1.02186 0.09124
 C239 C 0.78714 0.43077 0.48884
 C240 C 0.78719 0.43132 0.51466
 C241 C 0.78124 0.45256 0.52157
 N242 N 0.77750 0.46497 0.50087
 C243 C 0.78111 0.45168 0.48084
 C244 C 0.77770 0.45966 0.54658
 C245 C 0.77443 0.48200 0.55325
 C246 C 0.76637 0.48916 0.57631
 C247 C 0.76650 0.51182 0.57571
 C248 C 0.77467 0.51790 0.55233
 N249 N 0.77958 0.49962 0.53881
 C250 C 0.77826 0.53989 0.54451
 C251 C 0.78192 0.54584 0.51914
 C252 C 0.78820 0.56664 0.51108
 C253 C 0.78807 0.56609 0.48526
 C254 C 0.78176 0.54496 0.47842
 N255 N 0.77798 0.53261 0.49914
 C256 C 0.77792 0.53792 0.45345
 C257 C 0.77427 0.51565 0.44681
 C258 C 0.76594 0.50863 0.42383
 C259 C 0.76576 0.48597 0.42442
 C260 C 0.77402 0.47975 0.44773
 N261 N 0.77929 0.49795 0.46120
 C262 C 0.77739 0.45771 0.45550
 H263 H 0.79089 0.41653 0.47729
 H264 H 0.79096 0.41759 0.52695
 H265 H 0.78792 0.49823 0.47812
 H266 H 0.76094 0.47910 0.59195
 H267 H 0.76118 0.52259 0.59081
 H268 H 0.79223 0.58082 0.52259
 H269 H 0.79194 0.57975 0.47293
 H270 H 0.76018 0.47529 0.40937
 H271 H 0.78808 0.49919 0.52181
 H272 H 0.76054 0.51878 0.40824
 O273 O 0.23637 0.26755 0.21868
 O274 O 0.28431 0.25421 0.25850
 O275 O 0.26570 0.23643 0.21922
 O276 O 0.25501 0.28563 0.25802
 O277 O 0.23354 0.26600 0.28292
 O278 O 0.24430 0.21673 0.24413
 O279 O 0.26284 0.23475 0.28359
 O280 O 0.21491 0.24808 0.24379
 Cu281 Cu 0.26249 0.26295 0.23613
 Cu282 Cu 0.23677 0.23939 0.26610
 C283 C 0.21746 0.25997 0.22433
 C284 C 0.28175 0.24231 0.27797
 C285 C 0.25671 0.21819 0.22491
 C286 C 0.24254 0.28423 0.27720
 O287 O 0.75532 0.78111 0.24011
 O288 O 0.76658 0.73231 0.27935
 O289 O 0.78504 0.75033 0.24007
 O290 O 0.73684 0.76319 0.27960
 O291 O 0.71570 0.74330 0.25452
 O292 O 0.76408 0.72998 0.21531
 O293 O 0.74531 0.71223 0.25464
 O294 O 0.73432 0.76089 0.21523
 Cu295 Cu 0.76304 0.75876 0.26229
 Cu296 Cu 0.73776 0.73456 0.23244
 C297 C 0.74304 0.77930 0.22081
 C298 C 0.75772 0.71394 0.27383
 C299 C 0.78280 0.73809 0.22082
 C300 C 0.71804 0.75538 0.27390
 O301 O 0.78530 0.24117 0.24661
 O302 O 0.73716 0.22840 0.28641
 O303 O 0.75567 0.21024 0.24698
 O304 O 0.76690 0.25908 0.28604
 O305 O 0.74579 0.27922 0.26122
 O306 O 0.73437 0.23026 0.22222
 O307 O 0.71599 0.24837 0.26146
 O308 O 0.76405 0.26108 0.22169
 Cu309 Cu 0.76337 0.23269 0.26899
 Cu310 Cu 0.73794 0.25677 0.23917
 C311 C 0.78287 0.25318 0.22721
 C312 C 0.71837 0.23635 0.28085
 C313 C 0.74323 0.21190 0.22781
 C314 C 0.75815 0.27748 0.28046
 O315 O 0.26263 0.76494 0.21847
 O316 O 0.25041 0.71753 0.25940
 O317 O 0.23192 0.73514 0.21993
 O318 O 0.28119 0.74739 0.25812
 O319 O 0.26100 0.76821 0.28327
 O320 O 0.21215 0.75732 0.24397
 O321 O 0.22992 0.73890 0.28361
 O322 O 0.24342 0.78662 0.24369
 Cu323 Cu 0.25856 0.73910 0.23652
 Cu324 Cu 0.23460 0.76491 0.26609
 C325 C 0.25509 0.78389 0.22406
 C326 C 0.23810 0.72010 0.27855
 C327 C 0.21367 0.74438 0.22521
 C328 C 0.27946 0.75965 0.27745
 O329 O 0.76273 0.26761 0.78461
 O330 O 0.71429 0.25465 0.74539
 O331 O 0.73279 0.23691 0.78469
 O332 O 0.74407 0.28549 0.74527
 O333 O 0.76523 0.26523 0.72058
 O334 O 0.75366 0.21651 0.75981
 O335 O 0.73531 0.23459 0.72032
 O336 O 0.78358 0.24705 0.75989
 Cu337 Cu 0.73639 0.26322 0.76748
 Cu338 Cu 0.76154 0.23881 0.73765
 C339 C 0.78141 0.25935 0.77912
 C340 C 0.71655 0.24254 0.72602
 C341 C 0.74138 0.21842 0.77909
 C342 C 0.75647 0.28366 0.72608
 O343 O 0.28686 0.74824 0.74329
 O344 O 0.23864 0.73491 0.78262
 O345 O 0.25732 0.71716 0.74331
 O346 O 0.26818 0.76587 0.78279
 O347 O 0.24762 0.78619 0.75755
 O348 O 0.23566 0.73712 0.71892
 O349 O 0.21763 0.75560 0.75828
 O350 O 0.26554 0.76775 0.71803
 Cu351 Cu 0.26489 0.73953 0.76548
 Cu352 Cu 0.23950 0.76369 0.73571
 C353 C 0.28440 0.76004 0.72373
 C354 C 0.21993 0.74319 0.77736
 C355 C 0.24463 0.71878 0.72435
 C356 C 0.25971 0.78436 0.77700
 O357 O 0.25091 0.28502 0.74295
 O358 O 0.26239 0.23699 0.78331
 O359 O 0.28089 0.25429 0.74368
 O360 O 0.23247 0.26773 0.78273
 O361 O 0.21163 0.24686 0.75840
 O362 O 0.25994 0.23388 0.71895
 O363 O 0.24172 0.21623 0.75868
 O364 O 0.22989 0.26432 0.71864
 Cu365 Cu 0.25875 0.26309 0.76562
 Cu366 Cu 0.23369 0.23823 0.73624
 C367 C 0.23856 0.28285 0.72377
 C368 C 0.25395 0.21839 0.77796
 C369 C 0.27867 0.24197 0.72447
 C370 C 0.21379 0.25945 0.77739
 O371 O 0.74906 0.71946 0.73785
 O372 O 0.73801 0.76847 0.77694
 O373 O 0.71933 0.75042 0.73791
 O374 O 0.76774 0.73744 0.77711
 O375 O 0.78873 0.75751 0.75213
 O376 O 0.74033 0.77028 0.71272
 O377 O 0.75915 0.78842 0.75198
 O378 O 0.77009 0.73949 0.71288
 Cu379 Cu 0.74145 0.74193 0.75997
 Cu380 Cu 0.76666 0.76594 0.72992
 C381 C 0.76133 0.72113 0.71854
 C382 C 0.74684 0.78679 0.77126
 C383 C 0.72157 0.76241 0.71847
 C384 C 0.78650 0.74539 0.77147
 C385 C 0.27316 0.09071 0.10395
 C386 C 0.26288 0.07022 0.10761
 C387 C 0.26389 0.05390 0.08903
 C388 C 0.27514 0.05767 0.06619
 C389 C 0.28553 0.07823 0.06273
 C390 C 0.28458 0.09449 0.08135
 C391 C 0.27160 0.10830 0.12335
 C392 C 0.28998 0.12151 0.12906
 C393 C 0.28826 0.13865 0.14657
 C394 C 0.26811 0.14300 0.15874
 C395 C 0.24983 0.12955 0.15334
 C396 C 0.25156 0.11238 0.13586
 C397 C 0.26596 0.16194 0.17637
 C398 C 0.25327 0.16015 0.19845
 C399 C 0.25054 0.17829 0.21444
 C400 C 0.26043 0.19863 0.20870
 C401 C 0.27340 0.20031 0.18683
 C402 C 0.27612 0.18219 0.17086
 H403 H 0.25406 0.06678 0.12490
 H404 H 0.25524 0.03854 0.09225
 H405 H 0.29474 0.08166 0.04568
 H406 H 0.29250 0.11018 0.07788
 H407 H 0.30573 0.11852 0.12004
 H408 H 0.30274 0.14847 0.15064
 H409 H 0.23399 0.13268 0.16209
 H410 H 0.23703 0.10269 0.13160
 H411 H 0.24548 0.14469 0.20339
 H412 H 0.24050 0.17643 0.23117
 H413 H 0.28119 0.21575 0.18181
 H414 H 0.28573 0.18421 0.15384
 C415 C 0.77479 0.59237 0.59903
 C416 C 0.79110 0.57594 0.60107
 C417 C 0.79216 0.55879 0.58346
 C418 C 0.77690 0.55776 0.56363
 C419 C 0.76037 0.57390 0.56182
 C420 C 0.75936 0.59108 0.57931
 C421 C 0.77399 0.61100 0.61715
 C422 C 0.77007 0.63256 0.60856
 C423 C 0.76904 0.65015 0.62552
 C424 C 0.77185 0.64658 0.65146
 C425 C 0.77585 0.62503 0.66007
 C426 C 0.77700 0.60743 0.64307
 C427 C 0.77020 0.66530 0.66940
 C428 C 0.75844 0.66309 0.69206
 C429 C 0.75586 0.68111 0.70826
 C430 C 0.76508 0.70169 0.70218
 C431 C 0.77730 0.70373 0.67980
 C432 C 0.77980 0.68575 0.66358
 H433 H 0.80330 0.57662 0.61595
 H434 H 0.80503 0.54646 0.58511
 H435 H 0.74833 0.57322 0.54676
 H436 H 0.74641 0.60330 0.57750
 H437 H 0.76793 0.63586 0.58867
 H438 H 0.76568 0.66652 0.61834
 H439 H 0.77824 0.62182 0.67994
 H440 H 0.77990 0.59096 0.65023
 H441 H 0.75069 0.64759 0.69693
 H442 H 0.74635 0.67899 0.72535
 H443 H 0.78467 0.71933 0.67459
 H444 H 0.78922 0.68785 0.64642
 C445 C 0.72848 0.90579 0.09833
 C446 C 0.71758 0.92569 0.10379
 C447 C 0.71678 0.94267 0.08602
 C448 C 0.72678 0.94017 0.06221
 C449 C 0.73776 0.92020 0.05690
 C450 C 0.73865 0.90331 0.07472
 C451 C 0.72928 0.88763 0.11712
 C452 C 0.72746 0.86555 0.10934
 C453 C 0.72876 0.84841 0.12682
 C454 C 0.73178 0.85290 0.15257
 C455 C 0.73333 0.87501 0.16041
 C456 C 0.73213 0.89217 0.14289
 C457 C 0.73377 0.83455 0.17099
 C458 C 0.74902 0.83572 0.19091
 C459 C 0.75168 0.81798 0.20745
 C460 C 0.73923 0.79863 0.20435
 C461 C 0.72368 0.79761 0.18476
 C462 C 0.72092 0.81539 0.16833
 H463 H 0.70927 0.92801 0.12165
 H464 H 0.70773 0.95755 0.09065
 H465 H 0.74624 0.91782 0.03914
 H466 H 0.74763 0.88839 0.07011
 H467 H 0.72495 0.86148 0.08969
 H468 H 0.72779 0.83159 0.12006
 H469 H 0.73541 0.87906 0.18013
 H470 H 0.73380 0.90898 0.14949
 H471 H 0.75938 0.85010 0.19332
 H472 H 0.76387 0.81924 0.22230
 H473 H 0.71371 0.78300 0.18198
 H474 H 0.70873 0.81410 0.15350
 C475 C 0.22395 0.40893 0.60105
 C476 C 0.20760 0.42534 0.60283
 C477 C 0.20644 0.44221 0.58493
 C478 C 0.22165 0.44298 0.56503
 C479 C 0.23820 0.42683 0.56343
 C480 C 0.23930 0.40993 0.58122
 C481 C 0.22492 0.39067 0.61960
 C482 C 0.22895 0.36896 0.61154
 C483 C 0.23014 0.35174 0.62892
 C484 C 0.22740 0.35584 0.65478
 C485 C 0.22329 0.37754 0.66287
 C486 C 0.22198 0.39477 0.64544
 C487 C 0.22921 0.33752 0.67319
 C488 C 0.24104 0.34030 0.69574
 C489 C 0.24376 0.32266 0.71240
 C490 C 0.23462 0.30190 0.70692
 C491 C 0.22235 0.29930 0.68465
 C492 C 0.21971 0.31690 0.66796
 H493 H 0.19545 0.42489 0.61778
 H494 H 0.19357 0.45455 0.58642
 H495 H 0.25020 0.42731 0.54833
 H496 H 0.25228 0.39772 0.57960
 H497 H 0.23104 0.36526 0.59172
 H498 H 0.23357 0.33524 0.62214
 H499 H 0.22095 0.38116 0.68267
 H500 H 0.21902 0.41137 0.65221
 H501 H 0.24872 0.35594 0.70016
 H502 H 0.25331 0.32521 0.72940
 H503 H 0.21503 0.28355 0.67988
 H504 H 0.21025 0.31436 0.65090
 C505 C 0.90948 0.27318 0.10558
 C506 C 0.91605 0.25463 0.09151
 C507 C 0.93241 0.25641 0.07309
 C508 C 0.94253 0.27680 0.06820
 C509 C 0.93604 0.29535 0.08231
 C510 C 0.91975 0.29354 0.10083
 C511 C 0.89170 0.27132 0.12478
 C512 C 0.87592 0.28816 0.12762
 C513 C 0.85878 0.28608 0.14507
 C514 C 0.85694 0.26706 0.16005
 C515 C 0.87289 0.25034 0.15743
 C516 C 0.89008 0.25247 0.14006
 C517 C 0.83815 0.26437 0.17782
 C518 C 0.84121 0.25414 0.20132
 C519 C 0.82333 0.25077 0.21751
 C520 C 0.80200 0.25765 0.21063
 C521 C 0.79901 0.26825 0.18735
 C522 C 0.81686 0.27151 0.17111
 H523 H 0.90826 0.23878 0.09441
 H524 H 0.93717 0.24184 0.06258
 H525 H 0.94340 0.31132 0.07873
 H526 H 0.91527 0.30809 0.11151
 H527 H 0.87654 0.30279 0.11598
 H528 H 0.84695 0.29939 0.14683
 H529 H 0.87184 0.23537 0.16845
 H530 H 0.90212 0.23932 0.13861
 H531 H 0.85744 0.24877 0.20725
 H532 H 0.82621 0.24266 0.23538
 H533 H 0.78278 0.27364 0.18142
 H534 H 0.81384 0.27913 0.15300
 C535 C 0.41119 0.77710 0.60189
 C536 C 0.41922 0.75763 0.59066
 C537 C 0.43558 0.75853 0.57217
 C538 C 0.44407 0.77888 0.56438
 C539 C 0.43620 0.79835 0.57543
 C540 C 0.41997 0.79748 0.59413
 C541 C 0.39345 0.77608 0.62124
 C542 C 0.37666 0.79210 0.62191
 C543 C 0.35952 0.79064 0.63945
 C544 C 0.35863 0.77302 0.65662
 C545 C 0.37561 0.75719 0.65619
 C546 C 0.39284 0.75876 0.63880
 C547 C 0.33976 0.77075 0.67438
 C548 C 0.34297 0.76241 0.69882
 C549 C 0.32505 0.75919 0.71497
 C550 C 0.30352 0.76444 0.70715
 C551 C 0.30034 0.77327 0.68297
 C552 C 0.31822 0.77628 0.66673
 H553 H 0.41257 0.74170 0.59580
 H554 H 0.44143 0.74338 0.56364
 H555 H 0.44265 0.81418 0.56957
 H556 H 0.41441 0.81275 0.60260
 H557 H 0.37646 0.80554 0.60852
 H558 H 0.34691 0.80330 0.63949
 H559 H 0.37535 0.74326 0.66891
 H560 H 0.40568 0.74632 0.63910
 H561 H 0.35937 0.75835 0.70550
 H562 H 0.32805 0.75250 0.73357
 H563 H 0.28393 0.77735 0.67633
 H564 H 0.31506 0.78239 0.64793
 C565 C 0.08879 0.72584 0.10182
 C566 C 0.06981 0.71311 0.10598
 C567 C 0.05362 0.71128 0.08732
 C568 C 0.05620 0.72187 0.06388
 C569 C 0.07545 0.73441 0.05979
 C570 C 0.09144 0.73647 0.07857
 C571 C 0.10589 0.72807 0.12161
 C572 C 0.11472 0.74888 0.12739
 C573 C 0.13132 0.75099 0.14549
 C574 C 0.13961 0.73231 0.15796
 C575 C 0.13067 0.71151 0.15231
 C576 C 0.11384 0.70943 0.13443
 C577 C 0.15797 0.73455 0.17621
 C578 C 0.17631 0.72039 0.17493
 C579 C 0.19429 0.72339 0.19108
 C580 C 0.19417 0.74043 0.20904
 C581 C 0.17555 0.75421 0.21077
 C582 C 0.15769 0.75138 0.19441
 H583 H 0.06739 0.70478 0.12380
 H584 H 0.03928 0.70112 0.09102
 H585 H 0.07789 0.74315 0.04222
 H586 H 0.10601 0.74626 0.07484
 H587 H 0.10875 0.76352 0.11790
 H588 H 0.13805 0.76719 0.14934
 H589 H 0.13670 0.69688 0.16178
 H590 H 0.10739 0.69320 0.13019
 H591 H 0.17700 0.70741 0.16093
 H592 H 0.20837 0.71248 0.18933
 H593 H 0.17497 0.76750 0.22439
 H594 H 0.14367 0.76240 0.19591
 C595 C 0.58842 0.22344 0.60635
 C596 C 0.58030 0.24268 0.59478
 C597 C 0.56379 0.24143 0.57649
 C598 C 0.55523 0.22094 0.56925
 C599 C 0.56317 0.20168 0.58068
 C600 C 0.57956 0.20292 0.59917
 C601 C 0.60638 0.22482 0.62541
 C602 C 0.62318 0.20882 0.62618
 C603 C 0.64054 0.21062 0.64340
 C604 C 0.64162 0.22857 0.66016
 C605 C 0.62463 0.24438 0.65963
 C606 C 0.60719 0.24248 0.64256
 C607 C 0.66069 0.23117 0.67757
 C608 C 0.65775 0.23994 0.70188
 C609 C 0.67584 0.24342 0.71772
 C610 C 0.69728 0.23799 0.70972
 C611 C 0.70020 0.22877 0.68567
 C612 C 0.68214 0.22550 0.66974
 H613 H 0.58701 0.25871 0.59946
 H614 H 0.55788 0.25642 0.56766
 H615 H 0.55667 0.18575 0.57524
 H616 H 0.58519 0.18781 0.60793
 H617 H 0.62323 0.19512 0.61309
 H618 H 0.65315 0.19796 0.64353
 H619 H 0.62504 0.25856 0.67204
 H620 H 0.59436 0.25491 0.64278
 H621 H 0.64143 0.24412 0.70871
 H622 H 0.67304 0.25040 0.73623
 H623 H 0.71653 0.22455 0.67890
 H624 H 0.68510 0.21907 0.65101
 C625 C 0.72560 0.09176 0.90106
 C626 C 0.73569 0.09425 0.92471
 C627 C 0.73480 0.07738 0.94253
 C628 C 0.72384 0.05742 0.93722
 C629 C 0.71403 0.05485 0.91332
 C630 C 0.71482 0.07182 0.89554
 C631 C 0.72642 0.10993 0.88230
 C632 C 0.72941 0.10543 0.85653
 C633 C 0.73075 0.12263 0.83907
 C634 C 0.72920 0.14472 0.84696
 C635 C 0.72600 0.14918 0.87269
 C636 C 0.72455 0.13201 0.89011
 C637 C 0.73143 0.16312 0.82863
 C638 C 0.71869 0.18239 0.83125
 C639 C 0.72169 0.20020 0.81494
 C640 C 0.73737 0.19910 0.79548
 C641 C 0.74970 0.17964 0.79241
 C642 C 0.74682 0.16188 0.80885
 H643 H 0.74464 0.10916 0.92935
 H644 H 0.74329 0.07974 0.96029
 H645 H 0.70517 0.03989 0.90863
 H646 H 0.70664 0.06947 0.87761
 H647 H 0.73111 0.08863 0.84991
 H648 H 0.73296 0.11861 0.81936
 H649 H 0.72502 0.16599 0.87950
 H650 H 0.72192 0.13605 0.90975
 H651 H 0.70640 0.18375 0.84597
 H652 H 0.71179 0.21490 0.81768
 H653 H 0.76199 0.17831 0.77767
 H654 H 0.75711 0.14742 0.80648
 C655 C 0.22213 0.59430 0.40123
 C656 C 0.23771 0.59322 0.42082
 C657 C 0.23688 0.57623 0.43851
 C658 C 0.22039 0.56007 0.43704
 C659 C 0.20494 0.56092 0.41738
 C660 C 0.20582 0.57788 0.39958
 C661 C 0.22289 0.61261 0.38274
 C662 C 0.21970 0.60858 0.35692
 C663 C 0.22100 0.62582 0.33951
 C664 C 0.22537 0.64746 0.34759
 C665 C 0.22826 0.65151 0.37344
 C666 C 0.22706 0.63428 0.39081
 C667 C 0.22748 0.66572 0.32916
 C668 C 0.21845 0.68659 0.33439
 C669 C 0.22149 0.70412 0.31770
 C670 C 0.23369 0.70119 0.29542
 C671 C 0.24232 0.68020 0.28993
 C672 C 0.23921 0.66265 0.30660
 H673 H 0.25068 0.60542 0.42233
 H674 H 0.24906 0.57569 0.45343
 H675 H 0.19210 0.54856 0.41600
 H676 H 0.19351 0.57839 0.38481
 H677 H 0.21662 0.59202 0.35014
 H678 H 0.21853 0.62224 0.31973
 H679 H 0.23188 0.66797 0.38021
 H680 H 0.22933 0.63793 0.41061
 H681 H 0.20907 0.68937 0.35147
 H682 H 0.21456 0.72006 0.32245
 H683 H 0.25180 0.67739 0.27294
 H684 H 0.24655 0.64682 0.30217
 C685 C 0.27377 0.91224 0.89793
 C686 C 0.29379 0.92261 0.90418
 C687 C 0.29448 0.93897 0.92275
 C688 C 0.27510 0.94550 0.93529
 C689 C 0.25509 0.93516 0.92903
 C690 C 0.25443 0.91873 0.91061
 C691 C 0.27303 0.89442 0.87867
 C692 C 0.25492 0.89252 0.86225
 C693 C 0.25374 0.87520 0.84492
 C694 C 0.27070 0.85941 0.84344
 C695 C 0.28904 0.86157 0.85949
 C696 C 0.29016 0.87882 0.87694
 C697 C 0.26890 0.84040 0.82580
 C698 C 0.27610 0.81931 0.83313
 C699 C 0.27354 0.80123 0.81706
 C700 C 0.26357 0.80377 0.79335
 C701 C 0.25666 0.82489 0.78583
 C702 C 0.25937 0.84301 0.80183
 H703 H 0.30896 0.91815 0.89466
 H704 H 0.31022 0.94630 0.92761
 H705 H 0.23994 0.93981 0.93851
 H706 H 0.23881 0.91081 0.90664
 H707 H 0.24160 0.90442 0.86280
 H708 H 0.23925 0.87393 0.83307
 H709 H 0.30254 0.84988 0.85863
 H710 H 0.30425 0.87962 0.88945
 H711 H 0.28318 0.81661 0.85160
 H712 H 0.27892 0.78515 0.82348
 H713 H 0.24904 0.82741 0.76760
 H714 H 0.25400 0.85908 0.79541
 C715 C 0.77295 0.40552 0.40071
 C716 C 0.78945 0.42171 0.39866
 C717 C 0.79085 0.43874 0.41638
 C718 C 0.77573 0.43990 0.43635
 C719 C 0.75902 0.42399 0.43819
 C720 C 0.75768 0.40692 0.42059
 C721 C 0.77179 0.38702 0.38245
 C722 C 0.76769 0.36547 0.39090
 C723 C 0.76641 0.34800 0.37382
 C724 C 0.76913 0.35168 0.34788
 C725 C 0.77327 0.37323 0.33940
 C726 C 0.77467 0.39072 0.35653
 C727 C 0.76735 0.33307 0.32983
 C728 C 0.75549 0.33544 0.30725
 C729 C 0.75281 0.31750 0.29096
 C730 C 0.76203 0.29685 0.29687
 C731 C 0.77435 0.29467 0.31916
 C732 C 0.77695 0.31256 0.33547
 H733 H 0.80155 0.42093 0.38367
 H734 H 0.80385 0.45089 0.41470
 H735 H 0.74708 0.42477 0.45335
 H736 H 0.74459 0.39489 0.42242
 H737 H 0.76564 0.36207 0.41078
 H738 H 0.76296 0.33162 0.38089
 H739 H 0.77559 0.37653 0.31954
 H740 H 0.77769 0.40719 0.34948
 H741 H 0.74776 0.35100 0.30252
 H742 H 0.74322 0.31973 0.27393
 H743 H 0.78173 0.27902 0.32424
 H744 H 0.78645 0.31033 0.35256
 C745 C 0.08730 0.28151 0.89860
 C746 C 0.06694 0.27078 0.89554
 C747 C 0.05085 0.27185 0.91435
 C748 C 0.05470 0.28362 0.93684
 C749 C 0.07490 0.29491 0.93945
 C750 C 0.09098 0.29382 0.92062
 C751 C 0.10491 0.27927 0.87927
 C752 C 0.11828 0.29733 0.87281
 C753 C 0.13539 0.29491 0.85534
 C754 C 0.13950 0.27437 0.84394
 C755 C 0.12595 0.25640 0.85017
 C756 C 0.10887 0.25882 0.86763
 C757 C 0.15822 0.27147 0.82615
 C758 C 0.15591 0.25827 0.80454
 C759 C 0.17384 0.25467 0.78848
 C760 C 0.19450 0.26419 0.79367
 C761 C 0.19669 0.27772 0.81504
 C762 C 0.17876 0.28133 0.83108
 H763 H 0.06349 0.26140 0.87863
 H764 H 0.03565 0.26277 0.91165
 H765 H 0.07824 0.30473 0.95607
 H766 H 0.10652 0.30223 0.92359
 H767 H 0.11544 0.31338 0.88117
 H768 H 0.14535 0.30914 0.85065
 H769 H 0.12892 0.24028 0.84206
 H770 H 0.09912 0.24449 0.87253
 H771 H 0.14022 0.25070 0.80005
 H772 H 0.17157 0.24423 0.77213
 H773 H 0.21238 0.28527 0.81961
 H774 H 0.18113 0.29137 0.84774
 C775 C 0.59027 0.77481 0.39402
 C776 C 0.58219 0.75558 0.40561
 C777 C 0.56573 0.75685 0.42396
 C778 C 0.55719 0.77736 0.43124
 C779 C 0.56509 0.79661 0.41980
 C780 C 0.58142 0.79535 0.40124
 C781 C 0.60816 0.77340 0.37489
 C782 C 0.62496 0.78937 0.37407
 C783 C 0.64225 0.78754 0.35677
 C784 C 0.64328 0.76961 0.33999
 C785 C 0.62631 0.75383 0.34056
 C786 C 0.60892 0.75576 0.35771
 C787 C 0.66230 0.76698 0.32250
 C788 C 0.65928 0.75823 0.29819
 C789 C 0.67734 0.75470 0.28229
 C790 C 0.69880 0.76004 0.29023
 C791 C 0.70179 0.76924 0.31428
 C792 C 0.68378 0.77257 0.33027
 H793 H 0.58889 0.73954 0.40088
 H794 H 0.55986 0.74188 0.43280
 H795 H 0.55859 0.81256 0.42527
 H796 H 0.58702 0.81044 0.39247
 H797 H 0.62504 0.80305 0.38718
 H798 H 0.65486 0.80017 0.35661
 H799 H 0.62667 0.73967 0.32814
 H800 H 0.59609 0.74335 0.35754
 H801 H 0.64295 0.75411 0.29141
 H802 H 0.67448 0.74773 0.26379
 H803 H 0.71814 0.77340 0.32101
 H804 H 0.68678 0.77899 0.34899
 C805 C 0.91187 0.72448 0.89410
 C806 C 0.91272 0.73937 0.91440
 C807 C 0.92885 0.73719 0.93301
 C808 C 0.94447 0.72015 0.93163
 C809 C 0.94381 0.70532 0.91135
 C810 C 0.92757 0.70740 0.89278
 C811 C 0.89453 0.72675 0.87454
 C812 C 0.88302 0.70817 0.86574
 C813 C 0.86605 0.71049 0.84808
 C814 C 0.86039 0.73141 0.83869
 C815 C 0.87218 0.74992 0.84717
 C816 C 0.88901 0.74763 0.86496
 C817 C 0.84186 0.73407 0.82066
 C818 C 0.84376 0.74844 0.80004
 C819 C 0.82593 0.75176 0.78375
 C820 C 0.80577 0.74088 0.78784
 C821 C 0.80400 0.72623 0.80823
 C822 C 0.82188 0.72281 0.82442
 H823 H 0.90069 0.75252 0.91606
 H824 H 0.92919 0.74879 0.94853
 H825 H 0.95583 0.69213 0.91000
 H826 H 0.92741 0.69583 0.87723
 H827 H 0.88682 0.69190 0.87294
 H828 H 0.85736 0.69591 0.84173
 H829 H 0.86804 0.76627 0.84046
 H830 H 0.89775 0.76221 0.87122
 H831 H 0.85904 0.75715 0.79653
 H832 H 0.82785 0.76313 0.76820
 H833 H 0.78871 0.71759 0.81190
 H834 H 0.81987 0.71181 0.84031
 C835 C 0.40877 0.22296 0.39913
 C836 C 0.41706 0.24226 0.41044
 C837 C 0.43349 0.24106 0.42883
 C838 C 0.44181 0.22056 0.43643
 C839 C 0.43369 0.20125 0.42530
 C840 C 0.41738 0.20243 0.40671
 C841 C 0.39096 0.22431 0.37990
 C842 C 0.37398 0.20853 0.37923
 C843 C 0.35677 0.21031 0.36181
 C844 C 0.35601 0.22802 0.34474
 C845 C 0.37316 0.24362 0.34518
 C846 C 0.39045 0.24173 0.36246
 C847 C 0.33711 0.23063 0.32708
 C848 C 0.34035 0.23903 0.30268
 C849 C 0.32241 0.24258 0.28661
 C850 C 0.30085 0.23760 0.29448
 C851 C 0.29763 0.22871 0.31862
 C852 C 0.31553 0.22537 0.33478
 H853 H 0.41054 0.25830 0.40546
 H854 H 0.43953 0.25609 0.43743
 H855 H 0.44001 0.18530 0.43102
 H856 H 0.41162 0.18728 0.39816
 H857 H 0.37370 0.19503 0.39254
 H858 H 0.34403 0.19782 0.36176
 H859 H 0.37301 0.25761 0.33255
 H860 H 0.40343 0.25399 0.36216
 H861 H 0.35676 0.24288 0.29596
 H862 H 0.32544 0.24929 0.26804
 H863 H 0.28120 0.22483 0.32529
 H864 H 0.31236 0.21921 0.35356
 C865 C 0.73052 0.91136 0.89527
 C866 C 0.74058 0.90806 0.91876
 C867 C 0.73875 0.92394 0.93769
 C868 C 0.72703 0.94371 0.93353
 C869 C 0.71711 0.94698 0.90980
 C870 C 0.71868 0.93090 0.89098
 C871 C 0.73244 0.89435 0.87537
 C872 C 0.71365 0.88701 0.86233
 C873 C 0.71540 0.87020 0.84438
 C874 C 0.73602 0.86072 0.83888
 C875 C 0.75485 0.86841 0.85154
 C876 C 0.75306 0.88496 0.86973
 C877 C 0.73790 0.84240 0.82053
 C878 C 0.75460 0.84253 0.80220
 C879 C 0.75712 0.82471 0.78574
 C880 C 0.74318 0.80626 0.78754
 C881 C 0.72627 0.80629 0.80567
 C882 C 0.72356 0.82427 0.82189
 H883 H 0.74973 0.89307 0.92254
 H884 H 0.74706 0.92098 0.95545
 H885 H 0.70765 0.96178 0.90599
 H886 H 0.71082 0.93381 0.87296
 H887 H 0.69756 0.89393 0.86647
 H888 H 0.70066 0.86460 0.83477
 H889 H 0.77090 0.86124 0.84777
 H890 H 0.76779 0.89046 0.87942
 H891 H 0.76575 0.85641 0.80068
 H892 H 0.77032 0.82515 0.77200
 H893 H 0.71526 0.79233 0.80746
 H894 H 0.71067 0.82372 0.83600
 C895 C 0.22566 0.41209 0.39740
 C896 C 0.24145 0.41359 0.41674
 C897 C 0.23969 0.42987 0.43525
 C898 C 0.22215 0.44498 0.43475
 C899 C 0.20645 0.44369 0.41540
 C900 C 0.20814 0.42734 0.39690
 C901 C 0.22738 0.39447 0.37807
 C902 C 0.20855 0.38273 0.37037
 C903 C 0.21036 0.36547 0.35300
 C904 C 0.23100 0.35965 0.34288
 C905 C 0.24975 0.37167 0.35023
 C906 C 0.24796 0.38885 0.36767
 C907 C 0.23313 0.34071 0.32530
 C908 C 0.24714 0.34194 0.30426
 C909 C 0.24990 0.32374 0.28837
 C910 C 0.23877 0.30387 0.29325
 C911 C 0.22450 0.30276 0.31409
 C912 C 0.22168 0.32098 0.32990
 H913 H 0.25495 0.40191 0.41781
 H914 H 0.25196 0.43067 0.45006
 H915 H 0.19284 0.45529 0.41474
 H916 H 0.19588 0.42673 0.38209
 H917 H 0.19250 0.38657 0.37820
 H918 H 0.19559 0.35665 0.34750
 H919 H 0.26590 0.36744 0.34295
 H920 H 0.26271 0.39775 0.37304
 H921 H 0.25597 0.35701 0.30007
 H922 H 0.26097 0.32517 0.27245
 H923 H 0.21570 0.28769 0.31839
 H924 H 0.21098 0.31944 0.34613
 C925 C 0.27340 0.09177 0.89930
 C926 C 0.28474 0.09551 0.92197
 C927 C 0.28600 0.07907 0.94032
 C928 C 0.27597 0.05836 0.93650
 C929 C 0.26487 0.05461 0.91355
 C930 C 0.26358 0.07110 0.89525
 C931 C 0.27138 0.10956 0.88023
 C932 C 0.25126 0.11318 0.86772
 C933 C 0.24911 0.13036 0.85038
 C934 C 0.26703 0.14431 0.84512
 C935 C 0.28724 0.14052 0.85741
 C936 C 0.28939 0.12335 0.87478
 C937 C 0.26446 0.16304 0.82733
 C938 C 0.27397 0.18364 0.83272
 C939 C 0.27084 0.20152 0.81651
 C940 C 0.25810 0.19920 0.79454
 C941 C 0.24887 0.17851 0.78894
 C942 C 0.25202 0.16064 0.80515
 H943 H 0.29233 0.11133 0.92574
 H944 H 0.29508 0.08248 0.95746
 H945 H 0.25653 0.03912 0.91005
 H946 H 0.25486 0.06766 0.87788
 H947 H 0.23699 0.10306 0.87181
 H948 H 0.23322 0.13306 0.84155
 H949 H 0.30145 0.15076 0.85347
 H950 H 0.30519 0.12075 0.88383
 H951 H 0.28341 0.18611 0.84982
 H952 H 0.27813 0.21724 0.82141
 H953 H 0.23905 0.17615 0.77212
 H954 H 0.24475 0.14490 0.80028
 C955 C 0.77340 0.58760 0.39590
 C956 C 0.79073 0.57214 0.39558
 C957 C 0.79214 0.55588 0.41418
 C958 C 0.77635 0.55493 0.43345
 C959 C 0.75901 0.57027 0.43378
 C960 C 0.75753 0.58645 0.41517
 C961 C 0.77194 0.60506 0.37641
 C962 C 0.75146 0.61071 0.36578
 C963 C 0.74992 0.62768 0.34810
 C964 C 0.76880 0.63946 0.34074
 C965 C 0.78933 0.63365 0.35115
 C966 C 0.79090 0.61658 0.36874
 C967 C 0.76691 0.65813 0.32282
 C968 C 0.77835 0.67791 0.32721
 C969 C 0.77566 0.69592 0.31109
 C970 C 0.76152 0.69451 0.29015
 C971 C 0.75045 0.67456 0.28546
 C972 C 0.75308 0.65659 0.30164
 H973 H 0.80305 0.57250 0.38082
 H974 H 0.80559 0.54410 0.41366
 H975 H 0.74668 0.56972 0.44854
 H976 H 0.74416 0.59830 0.41609
 H977 H 0.73661 0.60197 0.37113
 H978 H 0.73384 0.63192 0.34061
 H979 H 0.80419 0.64231 0.34566
 H980 H 0.80687 0.61270 0.37676
 H981 H 0.78894 0.67966 0.34353
 H982 H 0.78441 0.71105 0.31524
 H983 H 0.73948 0.67291 0.26946
 H984 H 0.74427 0.64147 0.29760
 C985 C 0.09345 0.72420 0.89918
 C986 C 0.07396 0.71259 0.89378
 C987 C 0.05692 0.71142 0.91150
 C988 C 0.05898 0.72175 0.93518
 C989 C 0.07852 0.73349 0.94039
 C990 C 0.09545 0.73474 0.92264
 C991 C 0.11169 0.72540 0.88050
 C992 C 0.13380 0.72441 0.88845
 C993 C 0.15101 0.72625 0.87109
 C994 C 0.14655 0.72900 0.84530
 C995 C 0.12443 0.72965 0.83728
 C996 C 0.10720 0.72790 0.85468
 C997 C 0.16494 0.73175 0.82702
 C998 C 0.16320 0.74694 0.80713
 C999 C 0.18089 0.75032 0.79070
 C1000 C 0.20077 0.73868 0.79385
 C1001 C 0.20239 0.72320 0.81345
 C1002 C 0.18465 0.71973 0.82979
 H1003 H 0.07203 0.70401 0.87602
 H1004 H 0.04238 0.70184 0.90694
 H1005 H 0.08050 0.74223 0.95806
 H1006 H 0.11002 0.74427 0.92719
 H1007 H 0.13784 0.72217 0.90815
 H1008 H 0.16783 0.72596 0.87797
 H1009 H 0.12042 0.73150 0.81752
 H1010 H 0.09036 0.72891 0.84796
 H1011 H 0.14838 0.75670 0.80467
 H1012 H 0.17915 0.76243 0.77585
 H1013 H 0.21742 0.71385 0.81627
 H1014 H 0.18640 0.70762 0.84462
 C1015 C 0.59039 0.22075 0.40144
 C1016 C 0.58128 0.20046 0.40901
 C1017 C 0.56461 0.19975 0.42721
 C1018 C 0.55663 0.21931 0.43796
 C1019 C 0.56548 0.23957 0.43039
 C1020 C 0.58227 0.24030 0.41239
 C1021 C 0.60849 0.22159 0.38251
 C1022 C 0.60949 0.23885 0.36488
 C1023 C 0.62694 0.24018 0.34776
 C1024 C 0.64376 0.22417 0.34763
 C1025 C 0.64254 0.20667 0.36493
 C1026 C 0.62516 0.20544 0.38221
 C1027 C 0.66274 0.22611 0.32997
 C1028 C 0.68421 0.22040 0.33774
 C1029 C 0.70219 0.22321 0.32157
 C1030 C 0.69917 0.23200 0.29734
 C1031 C 0.67771 0.23736 0.28939
 C1032 C 0.65970 0.23434 0.30546
 H1033 H 0.58691 0.18513 0.40073
 H1034 H 0.55788 0.18399 0.43290
 H1035 H 0.55955 0.25479 0.43870
 H1036 H 0.58916 0.25616 0.40741
 H1037 H 0.59677 0.25139 0.36430
 H1038 H 0.62746 0.25404 0.33496
 H1039 H 0.65503 0.19389 0.36515
 H1040 H 0.62506 0.19204 0.39567
 H1041 H 0.68724 0.21433 0.35660
 H1042 H 0.71855 0.21904 0.32831
 H1043 H 0.67483 0.24400 0.27075
 H1044 H 0.64337 0.23849 0.29865
 C1045 C 0.90815 0.27814 0.90054
 C1046 C 0.90655 0.29337 0.92047
 C1047 C 0.92302 0.29450 0.93886
 C1048 C 0.94130 0.28029 0.93779
 C1049 C 0.94318 0.26538 0.91770
 C1050 C 0.92681 0.26434 0.89922
 C1051 C 0.89017 0.27621 0.88159
 C1052 C 0.88386 0.25540 0.87238
 C1053 C 0.86673 0.25343 0.85494
 C1054 C 0.85539 0.27220 0.84640
 C1055 C 0.86164 0.29302 0.85554
 C1056 C 0.87890 0.29502 0.87289
 C1057 C 0.83683 0.26989 0.82837
 C1058 C 0.81707 0.28162 0.83203
 C1059 C 0.79915 0.27847 0.81581
 C1060 C 0.80070 0.26365 0.79550
 C1061 C 0.82068 0.25235 0.79151
 C1062 C 0.83851 0.25539 0.80782
 H1063 H 0.89230 0.30406 0.92222
 H1064 H 0.92138 0.30621 0.95416
 H1065 H 0.95725 0.25439 0.91649
 H1066 H 0.92877 0.25273 0.88388
 H1067 H 0.89186 0.24054 0.87906
 H1068 H 0.86201 0.23714 0.84855
 H1069 H 0.85333 0.30778 0.84906
 H1070 H 0.88356 0.31131 0.87930
 H1071 H 0.81526 0.29277 0.84784
 H1072 H 0.78400 0.28743 0.81938
 H1073 H 0.82243 0.24085 0.77602
 H1074 H 0.85365 0.24634 0.80438
 C1075 C 0.40862 0.77574 0.39648
 C1076 C 0.41794 0.79612 0.40344
 C1077 C 0.43457 0.79712 0.42167
 C1078 C 0.44233 0.77776 0.43305
 C1079 C 0.43329 0.75741 0.42607
 C1080 C 0.41652 0.75639 0.40805
 C1081 C 0.39048 0.77463 0.37760
 C1082 C 0.38914 0.75689 0.36058
 C1083 C 0.37158 0.75534 0.34360
 C1084 C 0.35501 0.77159 0.34301
 C1085 C 0.35662 0.78958 0.35965
 C1086 C 0.37407 0.79104 0.37679
 C1087 C 0.33582 0.76943 0.32567
 C1088 C 0.31457 0.77582 0.33351
 C1089 C 0.29639 0.77306 0.31764
 C1090 C 0.29895 0.76363 0.29364
 C1091 C 0.32017 0.75744 0.28564
 C1092 C 0.33842 0.76041 0.30142
 H1093 H 0.41251 0.81129 0.39467
 H1094 H 0.44145 0.81295 0.42688
 H1095 H 0.43906 0.74234 0.43485
 H1096 H 0.40947 0.74048 0.40354
 H1097 H 0.40166 0.74414 0.36038
 H1098 H 0.37077 0.74112 0.33129
 H1099 H 0.34435 0.80258 0.35948
 H1100 H 0.37443 0.80481 0.38977
 H1101 H 0.31186 0.78246 0.35219
 H1102 H 0.28022 0.77786 0.32443
 H1103 H 0.32270 0.75027 0.26717
 H1104 H 0.35457 0.75566 0.29458
 C1105 C 0.27204 0.91055 0.10216
 C1106 C 0.25250 0.92006 0.09273
 C1107 C 0.25336 0.93671 0.07461
 C1108 C 0.27372 0.94402 0.06536
 C1109 C 0.29327 0.93459 0.07451
 C1110 C 0.29246 0.91810 0.09288
 C1111 C 0.27104 0.89261 0.12125
 C1112 C 0.28614 0.87498 0.12058
 C1113 C 0.28474 0.85780 0.13803
 C1114 C 0.26805 0.85767 0.15645
 C1115 C 0.25311 0.87542 0.15728
 C1116 C 0.25467 0.89272 0.14002
 C1117 C 0.26582 0.83884 0.17425
 C1118 C 0.25871 0.84230 0.19918
 C1119 C 0.25547 0.82449 0.21545
 C1120 C 0.25953 0.80282 0.20728
 C1121 C 0.26717 0.79936 0.18262
 C1122 C 0.27015 0.81713 0.16625
 H1123 H 0.23650 0.91438 0.09900
 H1124 H 0.23813 0.94373 0.06752
 H1125 H 0.30911 0.94007 0.06747
 H1126 H 0.30783 0.91141 0.09994
 H1127 H 0.29882 0.87420 0.10624
 H1128 H 0.29674 0.84459 0.13704
 H1129 H 0.23987 0.87578 0.17096
 H1130 H 0.24298 0.90618 0.14140
 H1131 H 0.25565 0.85880 0.20617
 H1132 H 0.24974 0.82769 0.23442
 H1133 H 0.27030 0.78283 0.17572
 H1134 H 0.27527 0.81377 0.14710
 C1135 C 0.77289 0.40998 0.60410
 C1136 C 0.75690 0.41143 0.58497
 C1137 C 0.75846 0.42762 0.56638
 C1138 C 0.77601 0.44266 0.56658
 C1139 C 0.79193 0.44142 0.58570
 C1140 C 0.79043 0.42516 0.60428
 C1141 C 0.77134 0.39250 0.62356
 C1142 C 0.79020 0.38069 0.63107
 C1143 C 0.78853 0.36362 0.64865
 C1144 C 0.76800 0.35809 0.65919
 C1145 C 0.74921 0.37015 0.65199
 C1146 C 0.75086 0.38714 0.63434
 C1147 C 0.76599 0.33941 0.67710
 C1148 C 0.75227 0.34110 0.69836
 C1149 C 0.74952 0.32314 0.71453
 C1150 C 0.76038 0.30306 0.70976
 C1151 C 0.77442 0.30151 0.68875
 C1152 C 0.77722 0.31950 0.67263
 H1153 H 0.74337 0.39980 0.58415
 H1154 H 0.74604 0.42839 0.55173
 H1155 H 0.80555 0.45297 0.58612
 H1156 H 0.80286 0.42457 0.61892
 H1157 H 0.80617 0.38434 0.62294
 H1158 H 0.80332 0.35474 0.65401
 H1159 H 0.73313 0.36614 0.65959
 H1160 H 0.73608 0.39610 0.62911
 H1161 H 0.74362 0.35632 0.70246
 H1162 H 0.73864 0.32491 0.73059
 H1163 H 0.78301 0.28627 0.68452
 H1164 H 0.78772 0.31763 0.65626
 C1165 C 0.72810 0.08663 0.10426
 C1166 C 0.71229 0.06974 0.10577
 C1167 C 0.71102 0.05361 0.08698
 C1168 C 0.72539 0.05427 0.06628
 C1169 C 0.74114 0.07113 0.06469
 C1170 C 0.74254 0.08714 0.08354
 C1171 C 0.72953 0.10381 0.12407
 C1172 C 0.75017 0.11057 0.13331
 C1173 C 0.75163 0.12729 0.15134
 C1174 C 0.73248 0.13772 0.16040
 C1175 C 0.71181 0.13080 0.15137
 C1176 C 0.71034 0.11394 0.13347
 C1177 C 0.73421 0.15619 0.17861
 C1178 C 0.72169 0.17548 0.17523
 C1179 C 0.72433 0.19344 0.19147
 C1180 C 0.73944 0.19244 0.21153
 C1181 C 0.75153 0.17291 0.21529
 C1182 C 0.74900 0.15502 0.19895
 H1183 H 0.70110 0.06886 0.12165
 H1184 H 0.69879 0.04067 0.08848
 H1185 H 0.75237 0.07184 0.04883
 H1186 H 0.75470 0.10011 0.08174
 H1187 H 0.76521 0.10291 0.12657
 H1188 H 0.76779 0.13242 0.15778
 H1189 H 0.69678 0.13845 0.15818
 H1190 H 0.69423 0.10914 0.12654
 H1191 H 0.71033 0.17692 0.15958
 H1192 H 0.71476 0.20824 0.18807
 H1193 H 0.76328 0.17159 0.23059
 H1194 H 0.75868 0.14025 0.20216
 C1195 C 0.22625 0.59111 0.60425
 C1196 C 0.24188 0.58947 0.58476
 C1197 C 0.23998 0.57311 0.56638
 C1198 C 0.22245 0.55806 0.56715
 C1199 C 0.20689 0.55948 0.58664
 C1200 C 0.20873 0.57592 0.60501
 C1201 C 0.22815 0.60880 0.62346
 C1202 C 0.20942 0.62070 0.63125
 C1203 C 0.21141 0.63799 0.64854
 C1204 C 0.23213 0.64366 0.65851
 C1205 C 0.25079 0.63151 0.65103
 C1206 C 0.24882 0.61430 0.63367
 C1207 C 0.23447 0.66255 0.67612
 C1208 C 0.24858 0.66111 0.69707
 C1209 C 0.25157 0.67924 0.71297
 C1210 C 0.24058 0.69925 0.70823
 C1211 C 0.22619 0.70057 0.68752
 C1212 C 0.22314 0.68240 0.67167
 H1213 H 0.25539 0.60110 0.58349
 H1214 H 0.25213 0.57220 0.55144
 H1215 H 0.19329 0.54793 0.58750
 H1216 H 0.19657 0.57666 0.61994
 H1217 H 0.19331 0.61695 0.62355
 H1218 H 0.19672 0.64694 0.65414
 H1219 H 0.26701 0.63562 0.65819
 H1220 H 0.26350 0.60528 0.62822
 H1221 H 0.25731 0.64594 0.70115
 H1222 H 0.26272 0.67765 0.72881
 H1223 H 0.21749 0.71574 0.68334
 H1224 H 0.21234 0.68408 0.65553
 C1225 C 0.90822 0.72024 0.09776
 C1226 C 0.92414 0.70337 0.09893
 C1227 C 0.94086 0.70206 0.08082
 C1228 C 0.94177 0.71746 0.06117
 C1229 C 0.92586 0.73423 0.05987
 C1230 C 0.90924 0.73563 0.07802
 C1231 C 0.89064 0.72192 0.11709
 C1232 C 0.88489 0.74254 0.12727
 C1233 C 0.86802 0.74429 0.14506
 C1234 C 0.85642 0.72548 0.15297
 C1235 C 0.86224 0.70483 0.14292
 C1236 C 0.87926 0.70305 0.12524
 C1237 C 0.83800 0.72760 0.17122
 C1238 C 0.81805 0.71632 0.16727
 C1239 C 0.80023 0.71939 0.18363
 C1240 C 0.80204 0.73371 0.20437
 C1241 C 0.82221 0.74453 0.20867
 C1242 C 0.83996 0.74155 0.19223
 H1243 H 0.92386 0.69143 0.11407
 H1244 H 0.95310 0.68909 0.08212
 H1245 H 0.92640 0.74629 0.04484
 H1246 H 0.89705 0.74864 0.07649
 H1247 H 0.89354 0.75732 0.12152
 H1248 H 0.86374 0.76045 0.15228
 H1249 H 0.85368 0.69005 0.14883
 H1250 H 0.88325 0.68698 0.11757
 H1251 H 0.81601 0.70562 0.15109
 H1252 H 0.78493 0.71082 0.17981
 H1253 H 0.82417 0.75563 0.22450
 H1254 H 0.85524 0.75023 0.19591
 C1255 C 0.40675 0.22358 0.60438
 C1256 C 0.41579 0.20308 0.59730
 C1257 C 0.43239 0.20189 0.57906
 C1258 C 0.44039 0.22117 0.56777
 C1259 C 0.43162 0.24164 0.57485
 C1260 C 0.41488 0.24284 0.59289
 C1261 C 0.38870 0.22492 0.62334
 C1262 C 0.38771 0.24259 0.64048
 C1263 C 0.37027 0.24437 0.65758
 C1264 C 0.35345 0.22842 0.65817
 C1265 C 0.35468 0.21050 0.64139
 C1266 C 0.37203 0.20881 0.62413
 C1267 C 0.33443 0.23084 0.67573
 C1268 C 0.31300 0.22494 0.66807
 C1269 C 0.29499 0.22808 0.68412
 C1270 C 0.29793 0.23740 0.70812
 C1271 C 0.31935 0.24302 0.71596
 C1272 C 0.33740 0.23967 0.70000
 H1273 H 0.41017 0.18796 0.60600
 H1274 H 0.43907 0.18597 0.57375
 H1275 H 0.43756 0.25664 0.56614
 H1276 H 0.40805 0.25885 0.59749
 H1277 H 0.40043 0.25511 0.64070
 H1278 H 0.36975 0.25854 0.66999
 H1279 H 0.34220 0.19774 0.64154
 H1280 H 0.37211 0.19511 0.61105
 H1281 H 0.31002 0.21843 0.64938
 H1282 H 0.27867 0.22371 0.67747
 H1283 H 0.32216 0.25008 0.73442
 H1284 H 0.35370 0.24401 0.70672
 C1285 C 0.08945 0.27910 0.10439
 C1286 C 0.07999 0.25977 0.09443
 C1287 C 0.06330 0.26098 0.07634
 C1288 C 0.05595 0.28150 0.06762
 C1289 C 0.06519 0.30085 0.07746
 C1290 C 0.08171 0.29968 0.09580
 C1291 C 0.10756 0.27774 0.12326
 C1292 C 0.12515 0.29285 0.12279
 C1293 C 0.14255 0.29109 0.13997
 C1294 C 0.14292 0.27404 0.15790
 C1295 C 0.12520 0.25910 0.15855
 C1296 C 0.10770 0.26100 0.14156
 C1297 C 0.16195 0.27147 0.17540
 C1298 C 0.15875 0.26397 0.20020
 C1299 C 0.17675 0.26047 0.21618
 C1300 C 0.19834 0.26464 0.20785
 C1301 C 0.20155 0.27264 0.18331
 C1302 C 0.18359 0.27589 0.16723
 H1303 H 0.08577 0.24366 0.10023
 H1304 H 0.05633 0.24591 0.06880
 H1305 H 0.05956 0.31681 0.07094
 H1306 H 0.08833 0.31489 0.10333
 H1307 H 0.12575 0.30580 0.10880
 H1308 H 0.15573 0.30309 0.13914
 H1309 H 0.12503 0.24559 0.17187
 H1310 H 0.09428 0.24928 0.14276
 H1311 H 0.14231 0.26081 0.20731
 H1312 H 0.17374 0.25446 0.23507
 H1313 H 0.21802 0.27586 0.17629
 H1314 H 0.18674 0.28131 0.14815
 C1315 C 0.59285 0.77793 0.59885
 C1316 C 0.58368 0.79821 0.59123
 C1317 C 0.56693 0.79888 0.57312
 C1318 C 0.55892 0.77929 0.56250
 C1319 C 0.56783 0.75904 0.57013
 C1320 C 0.58469 0.75836 0.58804
 C1321 C 0.61103 0.77714 0.61768
 C1322 C 0.61216 0.75993 0.63537
 C1323 C 0.62970 0.75863 0.65237
 C1324 C 0.64651 0.77461 0.65231
 C1325 C 0.64516 0.79206 0.63495
 C1326 C 0.62769 0.79327 0.61779
 C1327 C 0.66561 0.77268 0.66981
 C1328 C 0.68702 0.77832 0.66184
 C1329 C 0.70511 0.77551 0.67786
 C1330 C 0.70226 0.76679 0.70214
 C1331 C 0.68086 0.76150 0.71031
 C1332 C 0.66274 0.76452 0.69438
 H1333 H 0.58933 0.81357 0.59940
 H1334 H 0.56017 0.81463 0.56737
 H1335 H 0.56188 0.74380 0.56192
 H1336 H 0.59162 0.74250 0.59306
 H1337 H 0.59945 0.74741 0.63609
 H1338 H 0.63031 0.74480 0.66522
 H1339 H 0.65764 0.80482 0.63459
 H1340 H 0.62750 0.80662 0.60428
 H1341 H 0.68991 0.78433 0.64294
 H1342 H 0.72142 0.77962 0.67097
 H1343 H 0.67810 0.75491 0.72899
 H1344 H 0.64646 0.76041 0.70134
   
