data_POSCAR
  _audit_creation_date              2014-09-24
  _audit_creation_method            'ToBaCCo'
  _symmetry_space_group_name_H-M    'P1'
  _symmetry_Int_Tables_number       1
  _symmetry_cell_setting            triclinic
  loop_
  _symmetry_equiv_pos_as_xyz
 x,y,z
_cell_length_a 57.8697
_cell_length_b 57.7328
_cell_length_c 39.9348
_cell_angle_alpha 89.721000
_cell_angle_beta 90.483500
_cell_angle_gamma 90.185200
loop_
  _atom_site_label
  _atom_site_type_symbol
  _atom_site_fract_x
  _atom_site_fract_y
  _atom_site_fract_z
Zr1 Zr -0.04220 0.00465 0.00057
 O2 O -0.07012 -0.01323 -0.02235
 O3 O -0.05956 0.02687 0.03329
 O4 O -0.06025 -0.01651 0.03501
 O5 O -0.03529 0.04434 -0.06384
 O6 O -0.03173 -0.03707 0.06115
 O7 O -0.06206 0.02635 -0.03101
 O8 O -0.03027 0.04578 0.06028
 O9 O -0.02082 0.00408 0.04314
 O10 O -0.02159 0.03443 -0.00215
 O11 O -0.02351 -0.02642 -0.00257
 O12 O -0.02499 0.00288 -0.04584
 Zr13 Zr 0.03800 0.00126 -0.00833
 Zr14 Zr -0.00091 -0.02595 0.03867
 Zr15 Zr -0.00312 0.03197 -0.04660
 Zr16 Zr 0.00047 0.03317 0.03908
 O17 O -0.00503 0.02871 -0.09930
 O18 O 0.00297 0.02748 0.09148
 O19 O 0.01966 0.03269 -0.00541
 O20 O 0.02066 0.00320 0.03763
 O21 O 0.01769 -0.02870 -0.00578
 O22 O 0.01649 0.00191 -0.05061
 C23 C -0.05185 0.04166 0.05468
 C24 C -0.05624 0.04053 -0.05453
 C25 C -0.05311 -0.03188 0.05622
 O26 O 0.00316 -0.02283 0.09116
 O27 O 0.03096 -0.04057 0.05319
 O28 O 0.05751 -0.02279 0.01978
 C29 C 0.05171 -0.03743 0.04267
 O30 O -0.03681 -0.03858 -0.06692
 Zr31 Zr -0.00459 -0.02717 -0.04697
 O32 O 0.05541 -0.02095 -0.04085
 O33 O -0.00359 -0.06243 0.03525
 O34 O -0.00674 -0.06341 -0.03857
 O35 O -0.00459 -0.02317 -0.09979
 O36 O 0.02626 -0.04224 -0.06411
 C37 C 0.04781 -0.03750 -0.05939
 O38 O 0.06596 0.01762 0.01677
 O39 O -0.00259 0.06854 -0.04326
 O40 O 0.05626 0.02416 -0.03977
 O41 O 0.02808 0.04517 -0.06611
 O42 O 0.00016 0.06965 0.03248
 O43 O 0.03253 0.04769 0.05487
 C44 C 0.04941 0.04013 -0.06016
 H45 H -0.03061 0.04896 -0.00197
 H46 H 0.03172 0.00318 0.05668
 H47 H 0.02518 0.00185 -0.07185
 H48 H -0.03395 -0.04003 -0.00195
 H49 H -0.00029 0.04241 0.10259
 H50 H 0.00245 -0.03873 0.10057
 H51 H -0.00207 -0.06864 0.05834
 H52 H -0.00391 -0.07115 -0.06024
 H53 H -0.00229 0.07669 0.05475
 H54 H -0.00411 0.07462 -0.06643
 H55 H -0.00441 0.04462 -0.10866
 H56 H -0.00162 -0.03862 -0.10952
 H57 H 0.02998 0.05789 0.07436
 H58 H 0.08042 0.01151 0.00704
 H59 H -0.08460 -0.00695 -0.01290
 H60 H -0.03421 -0.05151 -0.08264
 Zr61 Zr 0.53800 0.50128 0.49172
 O62 O 0.56593 0.51770 0.51679
 O63 O 0.55545 0.47897 0.45937
 O64 O 0.55747 0.47730 0.52002
 O65 O 0.52819 0.54505 0.43367
 O66 O 0.53087 0.45963 0.55347
 O67 O 0.55631 0.52406 0.46018
 O68 O 0.52632 0.45765 0.43611
 O69 O 0.51768 0.47133 0.49438
 O70 O 0.51654 0.50182 0.44938
 O71 O 0.52060 0.50335 0.53761
 O72 O 0.51967 0.53273 0.49439
 Zr73 Zr 0.45779 0.50473 0.50038
 Zr74 Zr 0.49903 0.47422 0.53877
 Zr75 Zr 0.49695 0.53191 0.45315
 Zr76 Zr 0.49545 0.47276 0.45312
 O77 O 0.49747 0.56849 0.45628
 O78 O 0.49330 0.43654 0.46174
 O79 O 0.47506 0.50282 0.45402
 O80 O 0.47648 0.47364 0.49747
 O81 O 0.47912 0.50427 0.54300
 O82 O 0.47842 0.53449 0.49754
 C83 C 0.54786 0.46239 0.44087
 C84 C 0.54951 0.54000 0.43970
 C85 C 0.55164 0.46273 0.54298
 O86 O 0.49634 0.43773 0.53556
 O87 O 0.46817 0.46318 0.56124
 O88 O 0.43970 0.48368 0.53490
 C89 C 0.44680 0.46836 0.55622
 O90 O 0.53247 0.54790 0.55461
 Zr91 Zr 0.50042 0.53334 0.53882
 O92 O 0.44040 0.52704 0.53292
 O93 O 0.50303 0.47749 0.59124
 O94 O 0.50287 0.52781 0.59126
 O95 O 0.50013 0.56980 0.53199
 O96 O 0.46966 0.54601 0.55988
 C97 C 0.44809 0.54188 0.55426
 O98 O 0.42990 0.48678 0.47750
 O99 O 0.49512 0.52850 0.40046
 O100 O 0.43798 0.52632 0.46859
 O101 O 0.46479 0.54423 0.43573
 O102 O 0.49549 0.47661 0.40028
 O103 O 0.46324 0.46130 0.43318
 C104 C 0.44383 0.54042 0.44499
 H105 H 0.52526 0.50170 0.42815
 H106 H 0.46603 0.46004 0.49814
 H107 H 0.46940 0.54903 0.49760
 H108 H 0.53164 0.50338 0.55669
 H109 H 0.49615 0.42874 0.44011
 H110 H 0.49783 0.43158 0.55869
 H111 H 0.50230 0.46161 0.60075
 H112 H 0.49960 0.54278 0.60228
 H113 H 0.49846 0.46113 0.39065
 H114 H 0.49576 0.54439 0.39101
 H115 H 0.49599 0.57450 0.43308
 H116 H 0.49765 0.57690 0.55422
 H117 H 0.46585 0.44831 0.41756
 H118 H 0.41540 0.49310 0.48687
 H119 H 0.58041 0.51155 0.50714
 H120 H 0.52990 0.55817 0.57401
 Zr121 Zr 0.54193 -0.00131 0.48828
 O122 O 0.56720 0.01552 0.45869
 O123 O 0.56251 -0.02199 0.51983
 O124 O 0.56255 0.02170 0.51665
 O125 O 0.52999 -0.04443 0.43079
 O126 O 0.53640 0.04267 0.54627
 O127 O 0.55918 -0.02453 0.45652
 O128 O 0.53645 -0.03881 0.55501
 O129 O 0.52462 0.00147 0.53394
 O130 O 0.52179 -0.03123 0.49301
 O131 O 0.52261 0.02940 0.48460
 O132 O 0.52065 -0.00212 0.44508
 Zr133 Zr 0.46133 0.00112 0.49253
 Zr134 Zr 0.50390 0.03101 0.52920
 Zr135 Zr 0.49945 -0.03129 0.45188
 Zr136 Zr 0.50366 -0.02785 0.53734
 O137 O 0.49607 -0.03092 0.39909
 O138 O 0.50574 -0.01911 0.58879
 O139 O 0.48052 -0.02986 0.49646
 O140 O 0.48286 0.00176 0.53533
 O141 O 0.48131 0.03124 0.48801
 O142 O 0.47904 -0.00169 0.44732
 C143 C 0.55720 -0.03526 0.54459
 C144 C 0.55157 -0.04002 0.43604
 C145 C 0.55718 0.03741 0.53800
 O146 O 0.50373 0.03093 0.58218
 O147 O 0.47330 0.04666 0.54601
 O148 O 0.44407 0.02584 0.52200
 C149 C 0.45172 0.04231 0.54083
 O150 O 0.52978 0.03798 0.41716
 Zr151 Zr 0.49978 0.02764 0.44378
 O152 O 0.44081 0.02200 0.46101
 O153 O 0.50652 0.06713 0.52075
 O154 O 0.50232 0.06421 0.44722
 O155 O 0.49483 0.02089 0.39205
 O156 O 0.46745 0.04180 0.43032
 C157 C 0.44655 0.03754 0.43937
 O158 O 0.43617 -0.01475 0.52336
 O159 O 0.50018 -0.06759 0.45958
 O160 O 0.44068 -0.02293 0.46590
 O161 O 0.46712 -0.04616 0.44069
 O162 O 0.50406 -0.06455 0.53525
 O163 O 0.47367 -0.04179 0.56039
 C164 C 0.44625 -0.04053 0.44794
 H165 H 0.53098 -0.04566 0.49344
 H166 H 0.47363 0.00274 0.55603
 H167 H 0.46850 -0.00280 0.42772
 H168 H 0.53285 0.04304 0.48190
 H169 H 0.51036 -0.03327 0.60124
 H170 H 0.50526 0.04728 0.58932
 H171 H 0.50675 0.07458 0.54305
 H172 H 0.49749 0.07077 0.42528
 H173 H 0.50891 -0.07032 0.55763
 H174 H 0.49953 -0.07487 0.43716
 H175 H 0.49487 -0.04730 0.39198
 H176 H 0.49086 0.03579 0.38105
 H177 H 0.47828 -0.05094 0.58039
 H178 H 0.42083 -0.00915 0.51561
 H179 H 0.58255 0.00986 0.46633
 H180 H 0.52559 0.04995 0.40037
 Zr181 Zr -0.03863 0.50095 -0.01109
 O182 O -0.06393 0.48477 0.01916
 O183 O -0.05904 0.52190 -0.04263
 O184 O -0.05616 0.52545 0.01850
 O185 O -0.03237 0.45429 -0.06374
 O186 O -0.02708 0.54616 0.04313
 O187 O -0.05903 0.47705 -0.03851
 O188 O -0.03238 0.54201 -0.07260
 O189 O -0.01874 0.53118 -0.01490
 O190 O -0.02065 0.49854 -0.05610
 O191 O -0.01734 0.50137 0.03197
 O192 O -0.01937 0.47000 -0.00736
 Zr193 Zr 0.04200 0.49882 -0.01444
 Zr194 Zr 0.00365 0.53072 0.02651
 Zr195 Zr -0.00016 0.46901 -0.05170
 Zr196 Zr -0.00002 0.52797 -0.05896
 O197 O 0.00050 0.43266 -0.04450
 O198 O 0.00229 0.56452 -0.05484
 O199 O 0.02097 0.49828 -0.05788
 O200 O 0.02260 0.52949 -0.01789
 O201 O 0.02444 0.50123 0.03107
 O202 O 0.02194 0.46880 -0.01033
 C203 C -0.05341 0.53765 -0.06408
 C204 C -0.05343 0.45967 -0.05701
 C205 C -0.04863 0.54181 0.03763
 O206 O 0.00620 0.56691 0.01866
 O207 O 0.03604 0.54243 0.04404
 O208 O 0.06239 0.52171 0.01442
 C209 C 0.05688 0.53730 0.03588
 O210 O -0.02652 0.45764 0.05635
 Zr211 Zr 0.00354 0.47183 0.03382
 O212 O 0.06248 0.47799 0.01705
 O213 O 0.00322 0.53026 0.07948
 O214 O 0.00532 0.48022 0.08541
 O215 O 0.00407 0.43515 0.03122
 O216 O 0.03628 0.46085 0.05171
 C217 C 0.05707 0.46453 0.04156
 O218 O 0.06740 0.51588 -0.04351
 O219 O -0.00309 0.46969 -0.10453
 O220 O 0.05947 0.47584 -0.04631
 O221 O 0.03054 0.45603 -0.07250
 O222 O -0.00462 0.52161 -0.11086
 O223 O 0.03004 0.53870 -0.08510
 C224 C 0.05215 0.46033 -0.06706
 H225 H -0.03104 0.49754 -0.07587
 H226 H 0.03281 0.54318 -0.02029
 H227 H 0.03116 0.45440 -0.01000
 H228 H -0.02669 0.50219 0.05257
 H229 H -0.00254 0.57124 -0.07668
 H230 H 0.00626 0.57420 0.04108
 H231 H 0.00465 0.54656 0.08687
 H232 H 0.00992 0.46600 0.09772
 H233 H -0.00864 0.53657 -0.12166
 H234 H -0.00425 0.45336 -0.11188
 H235 H 0.00004 0.42554 -0.06704
 H236 H 0.00883 0.42923 0.05357
 H237 H 0.02588 0.55084 -0.10165
 H238 H 0.08272 0.51020 -0.03578
 H239 H -0.07924 0.49036 0.01124
 H240 H -0.02200 0.44835 0.07625
 Zr241 Zr 0.03930 0.50412 0.50253
 O242 O 0.06627 0.48700 0.52877
 O243 O 0.05771 0.52383 0.46763
 O244 O 0.05690 0.48079 0.47127
 O245 O 0.03346 0.54755 0.56120
 O246 O 0.02799 0.45905 0.44823
 O247 O 0.05966 0.52761 0.53022
 O248 O 0.02957 0.54136 0.43639
 O249 O 0.01834 0.50115 0.45981
 O250 O 0.01976 0.53446 0.50003
 O251 O 0.01966 0.47393 0.51022
 O252 O 0.02178 0.50597 0.54862
 Zr253 Zr -0.04111 0.50355 0.51015
 Zr254 Zr -0.00259 0.47216 0.46874
 Zr255 Zr 0.00096 0.53552 0.54421
 Zr256 Zr -0.00191 0.53094 0.45866
 O257 O 0.00158 0.53600 0.59719
 O258 O -0.00393 0.52150 0.40747
 O259 O -0.02149 0.53403 0.50263
 O260 O -0.02318 0.50179 0.46457
 O261 O -0.02173 0.47305 0.51288
 O262 O -0.01981 0.50651 0.55250
 C263 C 0.05091 0.53732 0.44385
 C264 C 0.05426 0.54290 0.55216
 C265 C 0.04946 0.46432 0.45231
 O266 O -0.00691 0.47153 0.41609
 O267 O -0.03467 0.45680 0.45745
 O268 O -0.06137 0.47883 0.48420
 C269 C -0.05558 0.46169 0.46548
 O270 O 0.03189 0.46583 0.57646
 Zr271 Zr 0.00030 0.47678 0.55403
 O272 O -0.05953 0.48357 0.54505
 O273 O -0.00042 0.43608 0.47782
 O274 O 0.00121 0.44012 0.55127
 O275 O 0.00007 0.48449 0.60590
 O276 O -0.03115 0.46390 0.57290
 C277 C -0.05253 0.46845 0.56661
 O278 O -0.06815 0.51955 0.48258
 O279 O 0.00239 0.57167 0.53534
 O280 O -0.05877 0.52846 0.53874
 O281 O -0.02985 0.55121 0.55971
 O282 O -0.00066 0.56765 0.45954
 O283 O -0.03327 0.54501 0.43952
 C284 C -0.05134 0.54601 0.55559
 H285 H 0.02923 0.54869 0.49792
 H286 H -0.03405 0.50067 0.44535
 H287 H -0.02866 0.50812 0.57346
 H288 H 0.02971 0.46012 0.51186
 H289 H -0.00000 0.53543 0.39405
 H290 H -0.00646 0.45504 0.40936
 H291 H -0.00220 0.42831 0.45586
 H292 H -0.00210 0.43395 0.57393
 H293 H 0.00241 0.57306 0.43640
 H294 H 0.00379 0.57920 0.55752
 H295 H 0.00158 0.55250 0.60390
 H296 H -0.00354 0.46992 0.61801
 H297 H -0.03011 0.55370 0.41860
 H298 H -0.08293 0.51446 0.49272
 H299 H 0.08106 0.49220 0.51878
 H300 H 0.02866 0.45410 0.59399
 Zr301 Zr 0.45898 0.00345 0.01013
 O302 O 0.43195 0.01944 -0.01750
 O303 O 0.44053 -0.01658 0.04494
 O304 O 0.43878 -0.02127 -0.01592
 O305 O 0.47011 0.05111 0.05977
 O306 O 0.46554 -0.04324 -0.04265
 O307 O 0.44124 0.02833 0.03869
 O308 O 0.46889 -0.03623 0.07285
 O309 O 0.47839 -0.02703 0.01288
 O310 O 0.48021 0.00642 0.05255
 O311 O 0.47697 0.00173 -0.03540
 O312 O 0.47857 0.03396 0.00269
 Zr313 Zr 0.53939 0.00413 0.00276
 Zr314 Zr 0.49759 -0.02788 -0.03120
 Zr315 Zr 0.50095 0.03546 0.04435
 Zr316 Zr 0.50035 -0.02328 0.05411
 O317 O 0.50235 0.07162 0.03553
 O318 O 0.50133 -0.05994 0.05133
 O319 O 0.52181 0.00593 0.04880
 O320 O 0.51977 -0.02609 0.01036
 O321 O 0.51851 0.00114 -0.04003
 O322 O 0.51981 0.03444 0.00023
 C323 C 0.44751 -0.03172 0.06649
 C324 C 0.44863 0.04588 0.05558
 C325 C 0.44461 -0.03838 -0.03467
 O326 O 0.49975 -0.06396 -0.02213
 O327 O 0.52824 -0.04098 -0.05155
 O328 O 0.55707 -0.01917 -0.02844
 C329 C 0.54969 -0.03568 -0.04738
 O330 O 0.46686 0.04494 -0.06045
 Zr331 Zr 0.49821 0.03091 -0.04122
 O332 O 0.55783 0.02388 -0.03206
 O333 O 0.49340 -0.02849 -0.08386
 O334 O 0.49630 0.02149 -0.09242
 O335 O 0.49940 0.06762 -0.04030
 O336 O 0.52971 0.04141 -0.06335
 C337 C 0.55105 0.03740 -0.05582
 O338 O 0.56635 -0.01297 0.02907
 O339 O 0.50150 0.03591 0.09733
 O340 O 0.55968 0.02762 0.03052
 O341 O 0.53342 0.04754 0.06143
 O342 O 0.50001 -0.01560 0.10598
 O343 O 0.53192 -0.03419 0.07664
 C344 C 0.55424 0.04291 0.05244
 H345 H 0.47132 0.00801 0.07349
 H346 H 0.52984 -0.03989 0.01203
 H347 H 0.52927 0.04868 -0.00184
 H348 H 0.46614 0.00062 -0.05466
 H349 H 0.49799 -0.06612 0.07398
 H350 H 0.49803 -0.07172 -0.04410
 H351 H 0.49386 -0.04497 -0.09061
 H352 H 0.50023 0.03543 -0.10581
 H353 H 0.49641 -0.03019 0.11807
 H354 H 0.50147 0.05240 0.10406
 H355 H 0.50371 0.07913 0.05772
 H356 H 0.50249 0.07305 -0.06343
 H357 H 0.52868 -0.04593 0.09415
 H358 H 0.58115 -0.00775 0.01913
 H359 H 0.41716 0.01433 -0.00741
 H360 H 0.47004 0.05362 -0.08137
 Zr361 Zr 0.46040 0.49665 0.00038
 O362 O 0.43513 0.51572 0.02651
 O363 O 0.43973 0.47441 -0.02882
 O364 O 0.44038 0.51772 -0.03203
 O365 O 0.47116 0.45815 0.06522
 O366 O 0.46728 0.53724 -0.06261
 O367 O 0.44252 0.47610 0.03543
 O368 O 0.46609 0.45406 -0.05880
 O369 O 0.47820 0.49601 -0.04502
 O370 O 0.48011 0.46636 0.00118
 O371 O 0.48030 0.52721 -0.00011
 O372 O 0.48137 0.49871 0.04391
 Zr373 Zr 0.54107 0.49785 -0.00278
 Zr374 Zr 0.49932 0.52552 -0.04437
 Zr375 Zr 0.50214 0.46902 0.04253
 Zr376 Zr 0.49873 0.46638 -0.04305
 O377 O 0.50474 0.47304 0.09507
 O378 O 0.49682 0.47124 -0.09566
 O379 O 0.52144 0.46697 -0.00168
 O380 O 0.51989 0.49580 -0.04571
 O381 O 0.52165 0.52834 -0.00315
 O382 O 0.52310 0.49846 0.04244
 C383 C 0.44523 0.45889 -0.05034
 C384 C 0.44971 0.46243 0.05887
 C385 C 0.44628 0.53269 -0.05446
 O386 O 0.49929 0.52160 -0.09701
 O387 O 0.53020 0.53957 -0.06306
 O388 O 0.55899 0.52049 -0.03523
 C389 C 0.55167 0.53569 -0.05654
 O390 O 0.47303 0.54137 0.06496
 Zr391 Zr 0.50287 0.52809 0.04113
 O392 O 0.56174 0.52064 0.02519
 O393 O 0.49776 0.56210 -0.04196
 O394 O 0.50198 0.56421 0.03135
 O395 O 0.50632 0.52448 0.09381
 O396 O 0.53555 0.54184 0.05439
 C397 C 0.55630 0.53690 0.04551
 O398 O 0.56616 0.47992 -0.03087
 O399 O 0.50111 0.43242 0.04043
 O400 O 0.56100 0.47513 0.02727
 O401 O 0.53422 0.45538 0.05800
 O402 O 0.49807 0.43004 -0.03505
 O403 O 0.52881 0.45087 -0.06320
 C404 C 0.55515 0.45982 0.04928
 H405 H 0.47067 0.45209 0.00297
 H406 H 0.52925 0.49529 -0.06633
 H407 H 0.53345 0.49860 0.06230
 H408 H 0.47033 0.54110 0.00033
 H409 H 0.49223 0.45622 -0.10567
 H410 H 0.49834 0.53739 -0.10676
 H411 H 0.49780 0.56796 -0.06534
 H412 H 0.50694 0.57221 0.05212
 H413 H 0.49362 0.42268 -0.05654
 H414 H 0.50118 0.42675 0.06389
 H415 H 0.50550 0.45726 0.10485
 H416 H 0.51078 0.53983 0.10285
 H417 H 0.52433 0.44052 -0.08186
 H418 H 0.58155 0.48576 -0.02365
 H419 H 0.41976 0.50972 0.01947
 H420 H 0.47752 0.55454 0.07944
 Zr421 Zr 0.04104 -0.00186 0.49747
 O422 O 0.06622 -0.01974 0.46950
 O423 O 0.06161 0.02109 0.52534
 O424 O 0.05886 0.02077 0.46487
 O425 O 0.03433 -0.04420 0.55847
 O426 O 0.02999 0.03962 0.43690
 O427 O 0.06105 -0.02444 0.52763
 O428 O 0.03532 0.04226 0.55441
 O429 O 0.02149 0.02856 0.49691
 O430 O 0.02305 -0.00119 0.54268
 O431 O 0.01986 -0.00411 0.45456
 O432 O 0.02153 -0.03280 0.49875
 Zr433 Zr -0.03964 -0.00338 0.50060
 Zr434 Zr -0.00083 0.02552 0.45571
 Zr435 Zr 0.00221 -0.03071 0.54294
 Zr436 Zr 0.00270 0.02835 0.54119
 O437 O 0.00132 -0.06733 0.54107
 O438 O 0.00168 0.06444 0.53119
 O439 O -0.01869 -0.00110 0.54413
 O440 O -0.01986 0.02725 0.49995
 O441 O -0.02183 -0.00408 0.45522
 O442 O -0.01980 -0.03359 0.50160
 C443 C 0.05610 0.03738 0.54559
 C444 C 0.05525 -0.03973 0.54971
 C445 C 0.05147 0.03586 0.44344
 O446 O -0.00252 0.06210 0.45791
 O447 O -0.03291 0.03707 0.43740
 O448 O -0.05974 0.01754 0.46810
 C449 C -0.05390 0.03248 0.44558
 O450 O 0.02898 -0.04905 0.43734
 Zr451 Zr -0.00116 -0.03361 0.45738
 O452 O -0.06021 -0.02581 0.47153
 O453 O -0.00085 0.02145 0.40310
 O454 O -0.00309 -0.02891 0.40474
 O455 O -0.00168 -0.06993 0.46560
 O456 O -0.03375 -0.04612 0.44169
 C457 C -0.05463 -0.04137 0.45011
 O458 O -0.06501 0.01565 0.52661
 O459 O 0.00480 -0.02653 0.59545
 O460 O -0.05744 -0.02390 0.53579
 O461 O -0.02873 -0.04164 0.56570
 O462 O 0.00614 0.02488 0.59389
 O463 O -0.02719 0.04159 0.56493
 C464 C -0.05020 -0.03747 0.55932
 H465 H 0.03340 -0.00097 0.56255
 H466 H -0.02988 0.04111 0.50032
 H467 H -0.02919 -0.04789 0.50348
 H468 H 0.02923 -0.00464 0.43394
 H469 H 0.00661 0.07252 0.55191
 H470 H -0.00251 0.06790 0.43450
 H471 H -0.00187 0.03720 0.39325
 H472 H -0.00761 -0.04398 0.39482
 H473 H 0.01054 0.04027 0.60285
 H474 H 0.00562 -0.04229 0.60533
 H475 H 0.00141 -0.07293 0.56456
 H476 H -0.00609 -0.07737 0.44416
 H477 H -0.02275 0.05482 0.57933
 H478 H -0.08036 0.00956 0.51959
 H479 H 0.08158 -0.01381 0.47670
 H480 H 0.02455 -0.05948 0.41874
 Zr481 Zr 0.75240 0.20980 0.25455
 O482 O 0.73413 0.18213 0.27734
 O483 O 0.77526 0.19192 0.22341
 O484 O 0.73195 0.19126 0.22003
 O485 O 0.79024 0.21746 0.32105
 O486 O 0.71233 0.21917 0.19096
 O487 O 0.77332 0.19027 0.28756
 O488 O 0.79494 0.22089 0.19703
 O489 O 0.75293 0.23054 0.21138
 O490 O 0.78202 0.23042 0.25839
 O491 O 0.72131 0.22855 0.25524
 O492 O 0.74932 0.22761 0.30035
 Zr493 Zr 0.74881 0.29030 0.26128
 Zr494 Zr 0.72285 0.25054 0.21341
 Zr495 Zr 0.77834 0.24944 0.30217
 Zr496 Zr 0.78181 0.25199 0.21665
 O497 O 0.77372 0.24851 0.35465
 O498 O 0.77751 0.25375 0.16392
 O499 O 0.78018 0.27178 0.26063
 O500 O 0.75189 0.27223 0.21588
 O501 O 0.71898 0.26988 0.25724
 O502 O 0.74832 0.26923 0.30397
 C503 C 0.79062 0.19935 0.20282
 C504 C 0.78679 0.19635 0.31184
 C505 C 0.71728 0.19787 0.19756
 O506 O 0.72743 0.25386 0.16111
 O507 O 0.70877 0.28235 0.19723
 O508 O 0.72571 0.30945 0.23096
 C509 C 0.71171 0.30333 0.20732
 O510 O 0.70740 0.21612 0.31900
 Zr511 Zr 0.71936 0.24814 0.29904
 O512 O 0.72569 0.30820 0.29180
 O513 O 0.68639 0.24794 0.21467
 O514 O 0.68345 0.24591 0.28841
 O515 O 0.72189 0.24888 0.35203
 O516 O 0.70390 0.27929 0.31450
 C517 C 0.70873 0.30082 0.30953
 O518 O 0.76608 0.31790 0.23680
 O519 O 0.81492 0.24967 0.30126
 O520 O 0.77052 0.30907 0.29435
 O521 O 0.79130 0.28088 0.32095
 O522 O 0.81800 0.25185 0.22551
 O523 O 0.79670 0.28389 0.20088
 C524 C 0.78629 0.30225 0.31516
 H525 H 0.79651 0.22138 0.25930
 H526 H 0.75241 0.28305 0.19658
 H527 H 0.74771 0.27821 0.32500
 H528 H 0.70775 0.21809 0.25412
 H529 H 0.79268 0.25030 0.15379
 H530 H 0.71183 0.25301 0.15073
 H531 H 0.68083 0.24915 0.19119
 H532 H 0.67514 0.24902 0.30951
 H533 H 0.82562 0.24902 0.20379
 H534 H 0.82032 0.24861 0.32483
 H535 H 0.78934 0.24931 0.36493
 H536 H 0.70620 0.25196 0.36071
 H537 H 0.80741 0.28104 0.18215
 H538 H 0.75968 0.33254 0.24568
 H539 H 0.74059 0.16745 0.26862
 H540 H 0.69407 0.21895 0.33382
 Zr541 Zr 0.74782 0.79463 0.75752
 O542 O 0.76370 0.82044 0.78746
 O543 O 0.72835 0.81480 0.72387
 O544 O 0.77176 0.81474 0.72998
 O545 O 0.70257 0.78361 0.81143
 O546 O 0.79500 0.78773 0.70610
 O547 O 0.72368 0.81244 0.78703
 O548 O 0.71287 0.78822 0.68800
 O549 O 0.75249 0.77650 0.71281
 O550 O 0.71809 0.77445 0.75068
 O551 O 0.77807 0.77514 0.76498
 O552 O 0.74499 0.77393 0.80113
 Zr553 Zr 0.74995 0.71373 0.75592
 Zr554 Zr 0.78153 0.75562 0.72128
 Zr555 Zr 0.71615 0.75263 0.79225
 Zr556 Zr 0.72326 0.75560 0.70728
 O557 O 0.71414 0.75004 0.84501
 O558 O 0.73422 0.75716 0.65678
 O559 O 0.71936 0.73300 0.74844
 O560 O 0.75255 0.73465 0.71277
 O561 O 0.77984 0.73365 0.76291
 O562 O 0.74531 0.73214 0.80028
 C563 C 0.71593 0.80915 0.69830
 C564 C 0.70744 0.80513 0.80632
 C565 C 0.78921 0.80878 0.71211
 O566 O 0.78374 0.75536 0.66843
 O567 O 0.79745 0.72468 0.70645
 O568 O 0.77554 0.69582 0.72912
 C569 C 0.79273 0.70316 0.71166
 O570 O 0.78352 0.78332 0.83303
 Zr571 Zr 0.77442 0.75291 0.80612
 O572 O 0.76957 0.69359 0.78964
 O573 O 0.81719 0.75745 0.73323
 O574 O 0.81100 0.75546 0.80630
 O575 O 0.76533 0.74865 0.85712
 O576 O 0.78799 0.72069 0.82154
 C577 C 0.78420 0.69963 0.81246
 O578 O 0.73518 0.68810 0.72451
 O579 O 0.68034 0.75347 0.78104
 O580 O 0.72497 0.69354 0.78102
 O581 O 0.70072 0.72044 0.80305
 O582 O 0.68662 0.75587 0.70599
 O583 O 0.71044 0.72530 0.68339
 C584 C 0.70672 0.69939 0.79716
 H585 H 0.70376 0.78369 0.74876
 H586 H 0.75438 0.72512 0.69242
 H587 H 0.74335 0.72189 0.82000
 H588 H 0.79159 0.78538 0.76880
 H589 H 0.72067 0.76166 0.64290
 H590 H 0.80037 0.75647 0.66293
 H591 H 0.82565 0.75736 0.71175
 H592 H 0.81654 0.75093 0.82895
 H593 H 0.68175 0.76044 0.68304
 H594 H 0.67213 0.75325 0.80271
 H595 H 0.69751 0.74904 0.85054
 H596 H 0.77965 0.74469 0.86965
 H597 H 0.70216 0.72970 0.66253
 H598 H 0.74035 0.67280 0.73315
 H599 H 0.75837 0.83569 0.77886
 H600 H 0.79464 0.77933 0.85113
 Zr601 Zr 0.25156 0.28982 0.74663
 O602 O 0.23520 0.31644 0.71859
 O603 O 0.27032 0.30898 0.78238
 O604 O 0.22731 0.30810 0.77553
 O605 O 0.29691 0.28239 0.69187
 O606 O 0.20447 0.27971 0.79753
 O607 O 0.27535 0.30956 0.71857
 O608 O 0.28663 0.28103 0.81531
 O609 O 0.24738 0.26963 0.78987
 O610 O 0.28167 0.27016 0.75176
 O611 O 0.22163 0.26988 0.73783
 O612 O 0.25454 0.27109 0.70149
 Zr613 Zr 0.25091 0.20895 0.74211
 Zr614 Zr 0.21864 0.24852 0.78012
 Zr615 Zr 0.28386 0.25027 0.70855
 Zr616 Zr 0.27697 0.24920 0.79354
 O617 O 0.28574 0.25016 0.65567
 O618 O 0.26637 0.24806 0.84423
 O619 O 0.28119 0.22861 0.75073
 O620 O 0.24803 0.22790 0.78676
 O621 O 0.22058 0.22831 0.73686
 O622 O 0.25510 0.22936 0.69920
 C623 C 0.28294 0.30235 0.80733
 C624 C 0.29169 0.30352 0.69872
 C625 C 0.21001 0.30112 0.79308
 O626 O 0.21674 0.24662 0.83295
 O627 O 0.20400 0.21658 0.79428
 O628 O 0.22524 0.18939 0.76698
 C629 C 0.20872 0.19551 0.78650
 O630 O 0.21508 0.28064 0.67085
 Zr631 Zr 0.22551 0.24946 0.69503
 O632 O 0.23190 0.18983 0.70696
 O633 O 0.18293 0.24935 0.76839
 O634 O 0.18888 0.25025 0.69558
 O635 O 0.23472 0.24841 0.64377
 O636 O 0.21333 0.21748 0.67606
 C637 C 0.21761 0.19624 0.68392
 O638 O 0.26594 0.18236 0.77171
 O639 O 0.31967 0.25147 0.71970
 O640 O 0.27643 0.19050 0.71560
 O641 O 0.29981 0.21902 0.69509
 O642 O 0.31360 0.25053 0.79472
 O643 O 0.29053 0.21815 0.81460
 C644 C 0.29443 0.19757 0.69959
 H645 H 0.29580 0.27970 0.75443
 H646 H 0.24653 0.21746 0.80638
 H647 H 0.25728 0.22006 0.67870
 H648 H 0.20790 0.27988 0.73483
 H649 H 0.27995 0.25222 0.85828
 H650 H 0.20012 0.24700 0.83872
 H651 H 0.17457 0.24840 0.78992
 H652 H 0.18334 0.24643 0.67271
 H653 H 0.31842 0.25409 0.81801
 H654 H 0.32784 0.25241 0.69802
 H655 H 0.30237 0.24979 0.64999
 H656 H 0.22056 0.24455 0.63080
 H657 H 0.29885 0.22175 0.83572
 H658 H 0.26102 0.16737 0.76184
 H659 H 0.24020 0.33144 0.72834
 H660 H 0.20378 0.27702 0.65284
 Zr661 Zr 0.24579 0.71000 0.24562
 O662 O 0.26497 0.68393 0.22127
 O663 O 0.22283 0.69023 0.27437
 O664 O 0.26608 0.69061 0.27985
 O665 O 0.20787 0.71897 0.17921
 O666 O 0.28539 0.71824 0.30961
 O667 O 0.22525 0.69125 0.21154
 O668 O 0.20336 0.71734 0.30436
 O669 O 0.24480 0.72898 0.29009
 O670 O 0.21569 0.72987 0.24304
 O671 O 0.27641 0.72964 0.24606
 O672 O 0.24839 0.72964 0.20102
 Zr673 Zr 0.24752 0.79073 0.24456
 Zr674 Zr 0.27436 0.74994 0.28919
 Zr675 Zr 0.21886 0.75066 0.20051
 Zr676 Zr 0.21540 0.74964 0.28632
 O677 O 0.22359 0.75190 0.14806
 O678 O 0.21973 0.74977 0.33910
 O679 O 0.21659 0.77120 0.24371
 O680 O 0.24484 0.77076 0.28856
 O681 O 0.27779 0.77109 0.24689
 O682 O 0.24842 0.77146 0.20035
 C683 C 0.20776 0.69627 0.29611
 C684 C 0.21177 0.69769 0.18745
 C685 C 0.28070 0.69700 0.30255
 O686 O 0.26996 0.75150 0.34167
 O687 O 0.28834 0.78129 0.30667
 O688 O 0.27000 0.80946 0.27654
 C689 C 0.28475 0.80264 0.29885
 O690 O 0.29049 0.72028 0.18133
 Zr691 Zr 0.27783 0.75102 0.20368
 O692 O 0.27016 0.81057 0.21520
 O693 O 0.31086 0.74799 0.28783
 O694 O 0.31379 0.74931 0.21408
 O695 O 0.27517 0.75397 0.15083
 O696 O 0.29263 0.78322 0.19066
 C697 C 0.28734 0.80438 0.19709
 O698 O 0.22973 0.81685 0.27094
 O699 O 0.18231 0.74985 0.20152
 O700 O 0.22500 0.80992 0.21344
 O701 O 0.20543 0.78251 0.18337
 O702 O 0.17920 0.74838 0.27774
 O703 O 0.19965 0.78048 0.30377
 C704 C 0.20977 0.80366 0.19154
 H705 H 0.20140 0.72047 0.24148
 H706 H 0.24418 0.78076 0.30860
 H707 H 0.24884 0.78133 0.18002
 H708 H 0.29017 0.71949 0.24657
 H709 H 0.20466 0.74550 0.34904
 H710 H 0.28560 0.75061 0.35188
 H711 H 0.31645 0.74857 0.31134
 H712 H 0.32201 0.75358 0.19326
 H713 H 0.17179 0.74454 0.29937
 H714 H 0.17693 0.74943 0.17791
 H715 H 0.20797 0.75251 0.13776
 H716 H 0.29075 0.75793 0.14237
 H717 H 0.18909 0.77666 0.32239
 H718 H 0.23573 0.83202 0.26298
 H719 H 0.25881 0.66874 0.22887
 H720 H 0.30365 0.72415 0.16661
 Zr721 Zr 0.24877 0.79037 0.76118
 O722 O 0.26601 0.81798 0.73668
 O723 O 0.22568 0.80826 0.79176
 O724 O 0.22564 0.80954 0.73093
 O725 O 0.29134 0.78092 0.82071
 O726 O 0.20863 0.78246 0.69723
 O727 O 0.27052 0.80912 0.79420
 O728 O 0.20390 0.77934 0.81448
 O729 O 0.21893 0.76995 0.75720
 O730 O 0.24832 0.76929 0.80386
 O731 O 0.25178 0.77233 0.71575
 O732 O 0.28013 0.77186 0.76043
 Zr733 Zr 0.25234 0.70988 0.75437
 Zr734 Zr 0.22273 0.75064 0.71335
 Zr735 Zr 0.27834 0.74949 0.80195
 Zr736 Zr 0.21936 0.74819 0.79898
 O737 O 0.31491 0.74972 0.80095
 O738 O 0.18344 0.74595 0.78846
 O739 O 0.24932 0.72766 0.80019
 O740 O 0.22126 0.72863 0.75516
 O741 O 0.25281 0.73064 0.71122
 O742 O 0.28196 0.73050 0.75814
 C743 C 0.20872 0.80088 0.80951
 C744 C 0.28633 0.80229 0.81496
 C745 C 0.21161 0.80343 0.70733
 O746 O 0.18628 0.74803 0.71471
 O747 O 0.21219 0.71927 0.69088
 O748 O 0.23185 0.69135 0.71987
 C749 C 0.21716 0.69797 0.69744
 O750 O 0.29657 0.78399 0.70065
 Zr751 Zr 0.28170 0.75208 0.71642
 O752 O 0.27516 0.69201 0.72314
 O753 O 0.22724 0.75398 0.66103
 O754 O 0.27733 0.75388 0.66370
 O755 O 0.31790 0.75193 0.72518
 O756 O 0.29480 0.72100 0.69673
 C757 C 0.29049 0.69945 0.70250
 O758 O 0.23410 0.68219 0.77718
 O759 O 0.27378 0.74855 0.85445
 O760 O 0.27332 0.69033 0.78729
 O761 O 0.29026 0.71750 0.82078
 O762 O 0.22195 0.74894 0.85197
 O763 O 0.20743 0.71617 0.81896
 C764 C 0.28681 0.69641 0.81155
 H765 H 0.24774 0.77826 0.82489
 H766 H 0.20769 0.71816 0.75407
 H767 H 0.29646 0.72145 0.75900
 H768 H 0.25228 0.78315 0.69646
 H769 H 0.17515 0.74906 0.80957
 H770 H 0.18069 0.74925 0.69124
 H771 H 0.21164 0.75313 0.65070
 H772 H 0.29249 0.75043 0.65353
 H773 H 0.20628 0.75202 0.86068
 H774 H 0.28942 0.74934 0.86468
 H775 H 0.32035 0.74865 0.82451
 H776 H 0.32549 0.74911 0.70343
 H777 H 0.19413 0.71900 0.83383
 H778 H 0.24055 0.66752 0.76844
 H779 H 0.25962 0.83262 0.74559
 H780 H 0.30726 0.78115 0.68189
 Zr781 Zr 0.24922 0.21369 0.25438
 O782 O 0.23469 0.18804 0.22277
 O783 O 0.26854 0.19359 0.28848
 O784 O 0.27501 0.19576 0.22804
 O785 O 0.19959 0.22042 0.30064
 O786 O 0.29712 0.22460 0.20572
 O787 O 0.22407 0.19352 0.27914
 O788 O 0.28637 0.22070 0.32103
 O789 O 0.27905 0.23362 0.26188
 O790 O 0.24417 0.23217 0.29859
 O791 O 0.25217 0.23458 0.21124
 O792 O 0.21867 0.23295 0.24629
 Zr793 Zr 0.24703 0.29459 0.25577
 Zr794 Zr 0.28108 0.25556 0.22024
 Zr795 Zr 0.21506 0.25262 0.28999
 Zr796 Zr 0.27322 0.25293 0.30493
 O797 O 0.17936 0.25343 0.27807
 O798 O 0.30981 0.25524 0.30566
 O799 O 0.24383 0.27393 0.29935
 O800 O 0.27723 0.27512 0.26382
 O801 O 0.25210 0.27643 0.21119
 O802 O 0.21736 0.27442 0.24844
 C803 C 0.28274 0.19963 0.31188
 C804 C 0.20569 0.19937 0.29498
 C805 C 0.29234 0.20308 0.21086
 O806 O 0.31664 0.25740 0.23282
 O807 O 0.29466 0.28765 0.20522
 O808 O 0.27117 0.31467 0.22856
 C809 C 0.28879 0.30871 0.21103
 O810 O 0.21033 0.22520 0.18106
 Zr811 Zr 0.22292 0.25553 0.20517
 O812 O 0.22782 0.31473 0.22179
 O813 O 0.28375 0.25525 0.16744
 O814 O 0.23432 0.25708 0.15489
 O815 O 0.18628 0.25574 0.20324
 O816 O 0.21263 0.28812 0.18570
 C817 C 0.21559 0.30906 0.19603
 O818 O 0.26270 0.32045 0.28589
 O819 O 0.21255 0.25008 0.34271
 O820 O 0.22270 0.31242 0.28492
 O821 O 0.20135 0.28361 0.30892
 O822 O 0.26364 0.24898 0.35579
 O823 O 0.28227 0.28337 0.33182
 C824 C 0.20631 0.30513 0.30394
 H825 H 0.24203 0.22195 0.31832
 H826 H 0.29072 0.28536 0.26786
 H827 H 0.20305 0.28365 0.24627
 H828 H 0.25418 0.22504 0.19095
 H829 H 0.31516 0.25070 0.32839
 H830 H 0.32527 0.25728 0.21150
 H831 H 0.30043 0.25636 0.16223
 H832 H 0.22089 0.26157 0.14077
 H833 H 0.27782 0.24503 0.36865
 H834 H 0.19587 0.24908 0.34791
 H835 H 0.17095 0.25324 0.29958
 H836 H 0.18160 0.26030 0.18021
 H837 H 0.29333 0.27939 0.34999
 H838 H 0.25743 0.33568 0.27717
 H839 H 0.23978 0.17275 0.23152
 H840 H 0.20223 0.22960 0.16005
 Zr841 Zr 0.75160 0.70810 0.24166
 O842 O 0.76684 0.68145 0.27090
 O843 O 0.73239 0.68908 0.20663
 O844 O 0.72607 0.68846 0.26670
 O845 O 0.80015 0.71833 0.19396
 O846 O 0.70501 0.71555 0.29448
 O847 O 0.77692 0.68974 0.21463
 O848 O 0.71362 0.71681 0.17614
 O849 O 0.72123 0.72747 0.23694
 O850 O 0.75550 0.72865 0.19882
 O851 O 0.74901 0.72691 0.28647
 O852 O 0.78193 0.72776 0.24998
 Zr853 Zr 0.75223 0.78896 0.24667
 Zr854 Zr 0.71957 0.74754 0.28036
 Zr855 Zr 0.78431 0.74955 0.20791
 Zr856 Zr 0.72588 0.74874 0.19518
 O857 O 0.82019 0.75069 0.21860
 O858 O 0.68925 0.74947 0.19625
 O859 O 0.75494 0.77037 0.20138
 O860 O 0.72226 0.76902 0.23817
 O861 O 0.74836 0.76864 0.28985
 O862 O 0.78238 0.76931 0.25127
 C863 C 0.71797 0.69555 0.18380
 C864 C 0.79479 0.69686 0.19837
 C865 C 0.70967 0.69452 0.28647
 O866 O 0.68379 0.74842 0.26915
 O867 O 0.70555 0.77865 0.29825
 O868 O 0.72810 0.80715 0.27594
 C869 C 0.71098 0.80008 0.29379
 O870 O 0.79170 0.71712 0.31367
 Zr871 Zr 0.77798 0.74822 0.29299
 O872 O 0.77117 0.80802 0.28234
 O873 O 0.71803 0.74543 0.33321
 O874 O 0.76772 0.74691 0.34381
 O875 O 0.81461 0.74958 0.29366
 O876 O 0.78774 0.77999 0.31484
 C877 C 0.78396 0.80134 0.30707
 O878 O 0.73571 0.81566 0.21899
 O879 O 0.78585 0.74963 0.15499
 O880 O 0.77585 0.80879 0.21845
 O881 O 0.79726 0.78172 0.19128
 O882 O 0.73475 0.74789 0.14378
 O883 O 0.71525 0.77999 0.17136
 C884 C 0.79208 0.80283 0.19834
 H885 H 0.75754 0.71943 0.17822
 H886 H 0.70850 0.77902 0.23543
 H887 H 0.79652 0.77885 0.25382
 H888 H 0.74764 0.71641 0.30604
 H889 H 0.68356 0.74572 0.17343
 H890 H 0.67558 0.74740 0.29079
 H891 H 0.70145 0.74579 0.33922
 H892 H 0.78137 0.75104 0.35770
 H893 H 0.72051 0.74406 0.13097
 H894 H 0.80244 0.74927 0.14909
 H895 H 0.82822 0.75170 0.19682
 H896 H 0.81958 0.75309 0.31691
 H897 H 0.70383 0.77641 0.15349
 H898 H 0.74076 0.83063 0.22877
 H899 H 0.76186 0.66649 0.26102
 H900 H 0.80017 0.72067 0.33469
 Zr901 Zr 0.74750 0.29136 0.74581
 O902 O 0.72975 0.31747 0.77226
 O903 O 0.77006 0.31120 0.71629
 O904 O 0.77005 0.31015 0.77760
 O905 O 0.70526 0.28304 0.68487
 O906 O 0.78875 0.28202 0.80736
 O907 O 0.72488 0.31051 0.71477
 O908 O 0.79248 0.28384 0.69167
 O909 O 0.77779 0.27174 0.74797
 O910 O 0.74830 0.27205 0.70163
 O911 O 0.74500 0.27143 0.78987
 O912 O 0.71659 0.27180 0.74519
 Zr913 Zr 0.74586 0.21064 0.74702
 Zr914 Zr 0.77454 0.25063 0.79034
 Zr915 Zr 0.71876 0.25123 0.70200
 Zr916 Zr 0.77774 0.25164 0.70480
 O917 O 0.68222 0.25037 0.70325
 O918 O 0.81372 0.24995 0.71498
 O919 O 0.74830 0.23023 0.70236
 O920 O 0.77647 0.23029 0.74724
 O921 O 0.74499 0.22965 0.79146
 O922 O 0.71574 0.23047 0.74459
 C923 C 0.78720 0.30500 0.69810
 C924 C 0.70961 0.30420 0.69296
 C925 C 0.78507 0.30335 0.79954
 O926 O 0.81103 0.24856 0.78878
 O927 O 0.78558 0.21895 0.81083
 O928 O 0.76621 0.19129 0.78122
 C929 C 0.78087 0.19771 0.80385
 O930 O 0.69987 0.28111 0.80541
 Zr931 Zr 0.71556 0.25028 0.78786
 O932 O 0.72297 0.19087 0.77587
 O933 O 0.77031 0.25240 0.84283
 O934 O 0.72008 0.25039 0.84060
 O935 O 0.67933 0.24903 0.77952
 O936 O 0.70354 0.21797 0.80594
 C937 C 0.70793 0.19690 0.79766
 O938 O 0.76503 0.18456 0.72266
 O939 O 0.72333 0.25243 0.64952
 O940 O 0.72529 0.19184 0.71304
 O941 O 0.70778 0.21951 0.68079
 O942 O 0.77493 0.25456 0.65196
 O943 O 0.79033 0.22089 0.68241
 C944 C 0.71175 0.19824 0.68901
 H945 H 0.74865 0.28191 0.68128
 H946 H 0.79023 0.22015 0.74769
 H947 H 0.70145 0.22106 0.74311
 H948 H 0.74441 0.28146 0.80989
 H949 H 0.82188 0.25421 0.69410
 H950 H 0.81669 0.24919 0.81226
 H951 H 0.78598 0.25150 0.85293
 H952 H 0.70504 0.24611 0.85064
 H953 H 0.79048 0.25852 0.64341
 H954 H 0.70767 0.25301 0.63931
 H955 H 0.67677 0.24992 0.67967
 H956 H 0.67199 0.24521 0.80120
 H957 H 0.80345 0.22475 0.66762
 H958 H 0.75889 0.16937 0.73030
 H959 H 0.73570 0.33264 0.76424
 H960 H 0.68940 0.27729 0.82414
 C961 C 0.10080 0.41764 0.88637
 C962 C 0.10812 0.43608 0.90670
 C963 C 0.09197 0.45067 0.92177
 C964 C 0.06797 0.44730 0.91669
 C965 C 0.06090 0.42925 0.89508
 C966 C 0.07704 0.41462 0.88042
 C967 C 0.11761 0.40102 0.87235
 N968 N 0.11028 0.38011 0.86096
 N969 N 0.12523 0.36477 0.84915
 C970 C 0.14817 0.36966 0.84805
 N971 N 0.15555 0.39065 0.85922
 N972 N 0.14058 0.40598 0.87127
 C973 C 0.16460 0.35226 0.83508
 C974 C 0.18689 0.35863 0.82460
 C975 C 0.20184 0.34206 0.81119
 C976 C 0.19489 0.31876 0.80850
 C977 C 0.17279 0.31241 0.81971
 C978 C 0.15781 0.32895 0.83262
 H979 H 0.12632 0.43889 0.91175
 H980 H 0.09845 0.46430 0.93790
 H981 H 0.04278 0.42590 0.88994
 H982 H 0.07082 0.40073 0.86457
 H983 H 0.19262 0.37646 0.82616
 H984 H 0.21878 0.34750 0.80284
 H985 H 0.16679 0.29467 0.81792
 H986 H 0.14084 0.32341 0.84067
 C987 C 0.39062 0.58247 0.39996
 C988 C 0.41407 0.58808 0.39601
 C989 C 0.43124 0.57398 0.40972
 C990 C 0.42541 0.55404 0.42816
 C991 C 0.40194 0.54811 0.43158
 C992 C 0.38469 0.56211 0.41732
 C993 C 0.37274 0.59855 0.38719
 N994 N 0.35093 0.59121 0.37986
 N995 N 0.33508 0.60606 0.36830
 C996 C 0.34040 0.62884 0.36407
 N997 N 0.36215 0.63608 0.37158
 N998 N 0.37798 0.62127 0.38280
 C999 C 0.32330 0.64565 0.35101
 C1000 C 0.32650 0.66932 0.35740
 C1001 C 0.31198 0.68576 0.34281
 C1002 C 0.29397 0.67902 0.32105
 C1003 C 0.29013 0.65523 0.31564
 C1004 C 0.30461 0.63867 0.33070
 H1005 H 0.41920 0.60356 0.38252
 H1006 H 0.44912 0.57912 0.40664
 H1007 H 0.39689 0.53282 0.44557
 H1008 H 0.36673 0.55740 0.42079
 H1009 H 0.34055 0.67524 0.37330
 H1010 H 0.31546 0.70387 0.34779
 H1011 H 0.27637 0.64945 0.29912
 H1012 H 0.30174 0.62050 0.32538
 C1013 C 0.89923 0.92395 0.61550
 C1014 C 0.92300 0.92084 0.62147
 C1015 C 0.93931 0.93383 0.60392
 C1016 C 0.93231 0.95022 0.57980
 C1017 C 0.90851 0.95389 0.57455
 C1018 C 0.89214 0.94093 0.59230
 C1019 C 0.88224 0.90853 0.63208
 N1020 N 0.85915 0.91286 0.63059
 N1021 N 0.84403 0.89811 0.64414
 C1022 C 0.85142 0.87839 0.65950
 N1023 N 0.87447 0.87424 0.66121
 N1024 N 0.88953 0.88899 0.64787
 C1025 C 0.83496 0.86104 0.67283
 C1026 C 0.84229 0.83809 0.67738
 C1027 C 0.82724 0.82132 0.68968
 C1028 C 0.80446 0.82703 0.69826
 C1029 C 0.79702 0.85003 0.69396
 C1030 C 0.81210 0.86688 0.68100
 H1031 H 0.92909 0.90805 0.63935
 H1032 H 0.95745 0.93058 0.60879
 H1033 H 0.90250 0.96643 0.55624
 H1034 H 0.87397 0.94374 0.58712
 H1035 H 0.85970 0.83295 0.67114
 H1036 H 0.83364 0.80383 0.69292
 H1037 H 0.77956 0.85492 0.70036
 H1038 H 0.80600 0.88446 0.67777
 C1039 C 0.60837 0.08491 0.09476
 C1040 C 0.58870 0.07938 0.11364
 C1041 C 0.57110 0.06564 0.09996
 C1042 C 0.57315 0.05666 0.06751
 C1043 C 0.59310 0.06169 0.04899
 C1044 C 0.61041 0.07593 0.06232
 C1045 C 0.62640 0.10036 0.10863
 N1046 N 0.63898 0.11433 0.08819
 N1047 N 0.65468 0.12887 0.10084
 C1048 C 0.65860 0.12978 0.13439
 N1049 N 0.64618 0.11564 0.15476
 N1050 N 0.63031 0.10130 0.14216
 C1051 C 0.67537 0.14640 0.14874
 C1052 C 0.68628 0.14157 0.17950
 C1053 C 0.70081 0.15793 0.19447
 C1054 C 0.70433 0.17968 0.17937
 C1055 C 0.69385 0.18433 0.14819
 C1056 C 0.67972 0.16771 0.13281
 H1057 H 0.58667 0.08618 0.13867
 H1058 H 0.55591 0.06199 0.11477
 H1059 H 0.59503 0.05511 0.02384
 H1060 H 0.62544 0.07986 0.04731
 H1061 H 0.68334 0.12521 0.19220
 H1062 H 0.70853 0.15388 0.21859
 H1063 H 0.69629 0.20094 0.13597
 H1064 H 0.67146 0.17188 0.10911
 C1065 C 0.89358 0.07636 0.40264
 C1066 C 0.91710 0.08074 0.39703
 C1067 C 0.93393 0.06588 0.40977
 C1068 C 0.92776 0.04633 0.42889
 C1069 C 0.90416 0.04145 0.43361
 C1070 C 0.88719 0.05627 0.42034
 C1071 C 0.87626 0.09352 0.39130
 N1072 N 0.85393 0.08744 0.38505
 N1073 N 0.83867 0.10323 0.37452
 C1074 C 0.84512 0.12572 0.37028
 N1075 N 0.86738 0.13173 0.37681
 N1076 N 0.88262 0.11597 0.38700
 C1077 C 0.82869 0.14344 0.35791
 C1078 C 0.83328 0.16699 0.36366
 C1079 C 0.81911 0.18406 0.34978
 C1080 C 0.80013 0.17803 0.32940
 C1081 C 0.79509 0.15441 0.32445
 C1082 C 0.80915 0.13727 0.33881
 H1083 H 0.92256 0.09593 0.38313
 H1084 H 0.95189 0.07023 0.40551
 H1085 H 0.89883 0.02650 0.44813
 H1086 H 0.86916 0.05248 0.42499
 H1087 H 0.84809 0.17229 0.37854
 H1088 H 0.82353 0.20205 0.35414
 H1089 H 0.78054 0.14919 0.30898
 H1090 H 0.80522 0.11924 0.33393
 C1091 C 0.39705 0.42515 0.60670
 C1092 C 0.42085 0.42235 0.61235
 C1093 C 0.43679 0.43703 0.59708
 C1094 C 0.42943 0.45488 0.57544
 C1095 C 0.40554 0.45834 0.57078
 C1096 C 0.38949 0.44366 0.58640
 C1097 C 0.38062 0.40791 0.62057
 N1098 N 0.35762 0.41238 0.62272
 N1099 N 0.34308 0.39639 0.63459
 C1100 C 0.35095 0.37523 0.64445
 N1101 N 0.37391 0.37084 0.64226
 N1102 N 0.38840 0.38683 0.63066
 C1103 C 0.33509 0.35707 0.65714
 C1104 C 0.34201 0.33377 0.65700
 C1105 C 0.32767 0.31646 0.66979
 C1106 C 0.30610 0.32201 0.68350
 C1107 C 0.29902 0.34531 0.68343
 C1108 C 0.31330 0.36266 0.67010
 H1109 H 0.42727 0.40847 0.62818
 H1110 H 0.45500 0.43386 0.60154
 H1111 H 0.39926 0.47195 0.55435
 H1112 H 0.37124 0.44628 0.58161
 H1113 H 0.35861 0.32885 0.64699
 H1114 H 0.33374 0.29874 0.66953
 H1115 H 0.28249 0.35014 0.69376
 H1116 H 0.30752 0.38047 0.67060
 C1117 C 0.59938 0.92013 0.90510
 C1118 C 0.60662 0.94089 0.92025
 C1119 C 0.59052 0.95557 0.93526
 C1120 C 0.56686 0.94986 0.93507
 C1121 C 0.55967 0.92943 0.91898
 C1122 C 0.57570 0.91474 0.90435
 C1123 C 0.61621 0.90363 0.89101
 N1124 N 0.60972 0.88145 0.88472
 N1125 N 0.62464 0.86630 0.87244
 C1126 C 0.64673 0.87266 0.86577
 N1127 N 0.65329 0.89488 0.87193
 N1128 N 0.63834 0.91005 0.88444
 C1129 C 0.66304 0.85557 0.85187
 C1130 C 0.68365 0.86263 0.83643
 C1131 C 0.69831 0.84629 0.82194
 C1132 C 0.69276 0.82255 0.82299
 C1133 C 0.67241 0.81554 0.83918
 C1134 C 0.65771 0.83183 0.85328
 H1135 H 0.62476 0.94552 0.92122
 H1136 H 0.59663 0.97121 0.94735
 H1137 H 0.54162 0.92443 0.91828
 H1138 H 0.56949 0.89900 0.89264
 H1139 H 0.68822 0.88081 0.83490
 H1140 H 0.71386 0.85228 0.80969
 H1141 H 0.66753 0.79743 0.84046
 H1142 H 0.64206 0.82577 0.86520
 C1143 C 0.10969 0.57983 0.08039
 C1144 C 0.09015 0.57327 0.09883
 C1145 C 0.07314 0.55914 0.08450
 C1146 C 0.07565 0.55079 0.05178
 C1147 C 0.09559 0.55663 0.03374
 C1148 C 0.11233 0.57130 0.04777
 C1149 C 0.12676 0.59608 0.09492
 N1150 N 0.13863 0.61108 0.07510
 N1151 N 0.15315 0.62652 0.08846
 C1152 C 0.15655 0.62739 0.12213
 N1153 N 0.14486 0.61221 0.14187
 N1154 N 0.13017 0.59697 0.12856
 C1155 C 0.17206 0.64488 0.13733
 C1156 C 0.18265 0.64043 0.16843
 C1157 C 0.19623 0.65733 0.18397
 C1158 C 0.19911 0.67928 0.16914
 C1159 C 0.18882 0.68363 0.13772
 C1160 C 0.17563 0.66647 0.12178
 H1161 H 0.08764 0.57967 0.12399
 H1162 H 0.05794 0.55485 0.09893
 H1163 H 0.09783 0.55053 0.00837
 H1164 H 0.12729 0.57602 0.03310
 H1165 H 0.18032 0.62389 0.18088
 H1166 H 0.20393 0.65339 0.20811
 H1167 H 0.19079 0.70034 0.12563
 H1168 H 0.16759 0.67037 0.09783
 C1169 C 0.39685 0.92490 0.11417
 C1170 C 0.42054 0.92163 0.12031
 C1171 C 0.43685 0.93629 0.10585
 C1172 C 0.42992 0.95452 0.08463
 C1173 C 0.40615 0.95836 0.07943
 C1174 C 0.38976 0.94373 0.09420
 C1175 C 0.37995 0.90787 0.12710
 N1176 N 0.35698 0.91265 0.12795
 N1177 N 0.34191 0.89678 0.13865
 C1178 C 0.34924 0.87546 0.14859
 N1179 N 0.37218 0.87077 0.14777
 N1180 N 0.38720 0.88664 0.13732
 C1181 C 0.33277 0.85746 0.15977
 C1182 C 0.33943 0.83410 0.15979
 C1183 C 0.32442 0.81693 0.17113
 C1184 C 0.30244 0.82270 0.18314
 C1185 C 0.29562 0.84606 0.18285
 C1186 C 0.31060 0.86328 0.17100
 H1187 H 0.42657 0.90744 0.13588
 H1188 H 0.45498 0.93284 0.11058
 H1189 H 0.40021 0.97229 0.06330
 H1190 H 0.37161 0.94669 0.08903
 H1191 H 0.35633 0.82903 0.15104
 H1192 H 0.33028 0.79913 0.17112
 H1193 H 0.27877 0.85104 0.19191
 H1194 H 0.30502 0.88117 0.17130
 C1195 C 0.59768 0.41679 0.39714
 C1196 C 0.60491 0.43754 0.41226
 C1197 C 0.58872 0.45264 0.42592
 C1198 C 0.56499 0.44738 0.42442
 C1199 C 0.55779 0.42695 0.40840
 C1200 C 0.57395 0.41180 0.39505
 C1201 C 0.61468 0.39999 0.38454
 N1202 N 0.60816 0.37787 0.37796
 N1203 N 0.62340 0.36247 0.36722
 C1204 C 0.64581 0.36855 0.36249
 N1205 N 0.65237 0.39072 0.36893
 N1206 N 0.63712 0.40612 0.37987
 C1207 C 0.66254 0.35131 0.35036
 C1208 C 0.68390 0.35827 0.33712
 C1209 C 0.69913 0.34187 0.32428
 C1210 C 0.69339 0.31818 0.32480
 C1211 C 0.67227 0.31125 0.33883
 C1212 C 0.65699 0.32763 0.35131
 H1213 H 0.62309 0.44184 0.41427
 H1214 H 0.59484 0.46826 0.43806
 H1215 H 0.53966 0.42233 0.40679
 H1216 H 0.56781 0.39603 0.38333
 H1217 H 0.68864 0.37642 0.33602
 H1218 H 0.71528 0.34778 0.31367
 H1219 H 0.66726 0.29316 0.33957
 H1220 H 0.64075 0.32169 0.36157
 C1221 C 0.89478 0.58058 0.89634
 C1222 C 0.91796 0.58387 0.88756
 C1223 C 0.93508 0.56909 0.89980
 C1224 C 0.92961 0.55071 0.92188
 C1225 C 0.90608 0.54706 0.92976
 C1226 C 0.88890 0.56174 0.91693
 C1227 C 0.87721 0.59753 0.88515
 N1228 N 0.85448 0.59171 0.88259
 N1229 N 0.83888 0.60733 0.87265
 C1230 C 0.84540 0.62941 0.86532
 N1231 N 0.86809 0.63516 0.86803
 N1232 N 0.88366 0.61955 0.87763
 C1233 C 0.82846 0.64701 0.85425
 C1234 C 0.83350 0.67059 0.85870
 C1235 C 0.81860 0.68755 0.84629
 C1236 C 0.79840 0.68137 0.82864
 C1237 C 0.79299 0.65773 0.82491
 C1238 C 0.80780 0.64069 0.83789
 H1239 H 0.92297 0.59809 0.87136
 H1240 H 0.95274 0.57266 0.89252
 H1241 H 0.90083 0.53311 0.94632
 H1242 H 0.87111 0.55881 0.92406
 H1243 H 0.84918 0.67599 0.87148
 H1244 H 0.82337 0.70555 0.84959
 H1245 H 0.77753 0.65242 0.81149
 H1246 H 0.80352 0.62261 0.83409
 C1247 C 0.11009 0.08071 0.58471
 C1248 C 0.09115 0.07463 0.60472
 C1249 C 0.07356 0.06050 0.59201
 C1250 C 0.07495 0.05170 0.55940
 C1251 C 0.09415 0.05732 0.53964
 C1252 C 0.11144 0.07197 0.55205
 C1253 C 0.12805 0.09652 0.59773
 N1254 N 0.13936 0.11129 0.57691
 N1255 N 0.15488 0.12624 0.58896
 C1256 C 0.15989 0.12677 0.62223
 N1257 N 0.14877 0.11181 0.64295
 N1258 N 0.13307 0.09706 0.63097
 C1259 C 0.17636 0.14385 0.63602
 C1260 C 0.18861 0.13889 0.66563
 C1261 C 0.20287 0.15561 0.68025
 C1262 C 0.20470 0.17786 0.66603
 C1263 C 0.19290 0.18263 0.63588
 C1264 C 0.17905 0.16567 0.62080
 H1265 H 0.08967 0.08126 0.62993
 H1266 H 0.05891 0.05636 0.60768
 H1267 H 0.09547 0.05086 0.51431
 H1268 H 0.12591 0.07638 0.53619
 H1269 H 0.18698 0.12213 0.67770
 H1270 H 0.21185 0.15132 0.70333
 H1271 H 0.19408 0.19957 0.62423
 H1272 H 0.16973 0.16992 0.59796
 C1273 C 0.09886 0.42017 0.40407
 C1274 C 0.10624 0.44076 0.41956
 C1275 C 0.09024 0.45542 0.43484
 C1276 C 0.06655 0.44987 0.43458
 C1277 C 0.05922 0.42961 0.41817
 C1278 C 0.07515 0.41494 0.40327
 C1279 C 0.11556 0.40367 0.38965
 N1280 N 0.10887 0.38163 0.38283
 N1281 N 0.12367 0.36648 0.37025
 C1282 C 0.14583 0.37270 0.36380
 N1283 N 0.15259 0.39479 0.37050
 N1284 N 0.13776 0.40996 0.38330
 C1285 C 0.16202 0.35559 0.34965
 C1286 C 0.18278 0.36260 0.33460
 C1287 C 0.19737 0.34625 0.31999
 C1288 C 0.19159 0.32255 0.32054
 C1289 C 0.17106 0.31560 0.33627
 C1290 C 0.15643 0.33190 0.35048
 H1291 H 0.12441 0.44527 0.42058
 H1292 H 0.09646 0.47093 0.44717
 H1293 H 0.04114 0.42472 0.41740
 H1294 H 0.06882 0.39934 0.39130
 H1295 H 0.18754 0.38074 0.33351
 H1296 H 0.21308 0.35219 0.30810
 H1297 H 0.16600 0.29753 0.33713
 H1298 H 0.14065 0.32588 0.36208
 C1299 C 0.39381 0.57664 0.90257
 C1300 C 0.41734 0.58116 0.89733
 C1301 C 0.43417 0.56630 0.91009
 C1302 C 0.42797 0.54661 0.92889
 C1303 C 0.40436 0.54161 0.93328
 C1304 C 0.38740 0.55642 0.91998
 C1305 C 0.37646 0.59375 0.89115
 N1306 N 0.35418 0.58759 0.88464
 N1307 N 0.33891 0.60334 0.87405
 C1308 C 0.34528 0.62587 0.86998
 N1309 N 0.36748 0.63196 0.87676
 N1310 N 0.38274 0.61624 0.88702
 C1311 C 0.32882 0.64354 0.85757
 C1312 C 0.33331 0.66711 0.86343
 C1313 C 0.31911 0.68415 0.84955
 C1314 C 0.30019 0.67809 0.82907
 C1315 C 0.29525 0.65447 0.82400
 C1316 C 0.30934 0.63734 0.83834
 H1317 H 0.42282 0.59645 0.88367
 H1318 H 0.45213 0.57075 0.90611
 H1319 H 0.39901 0.52654 0.94754
 H1320 H 0.36936 0.55252 0.92435
 H1321 H 0.34807 0.67243 0.87840
 H1322 H 0.32346 0.70214 0.85402
 H1323 H 0.28076 0.64921 0.80844
 H1324 H 0.30549 0.61931 0.83338
 C1325 C 0.61016 0.07991 0.58210
 C1326 C 0.59077 0.07321 0.60075
 C1327 C 0.57372 0.05908 0.58654
 C1328 C 0.57604 0.05086 0.55372
 C1329 C 0.59585 0.05682 0.53545
 C1330 C 0.61262 0.07150 0.54937
 C1331 C 0.62724 0.09619 0.59654
 N1332 N 0.63888 0.11136 0.57670
 N1333 N 0.65334 0.12687 0.59003
 C1334 C 0.65690 0.12764 0.62368
 N1335 N 0.64545 0.11229 0.64342
 N1336 N 0.63082 0.09698 0.63015
 C1337 C 0.67231 0.14523 0.63886
 C1338 C 0.68301 0.14080 0.66989
 C1339 C 0.69648 0.15778 0.68545
 C1340 C 0.69915 0.17978 0.67071
 C1341 C 0.68875 0.18411 0.63936
 C1342 C 0.67566 0.16689 0.62340
 H1343 H 0.58839 0.07951 0.62599
 H1344 H 0.55862 0.05469 0.60113
 H1345 H 0.59793 0.05081 0.51001
 H1346 H 0.62748 0.07633 0.53454
 H1347 H 0.68085 0.12421 0.68228
 H1348 H 0.70427 0.15384 0.70953
 H1349 H 0.69056 0.20087 0.62732
 H1350 H 0.66753 0.17077 0.59951
 C1351 C 0.89721 0.92472 0.10653
 C1352 C 0.92102 0.92188 0.11205
 C1353 C 0.93694 0.93661 0.09684
 C1354 C 0.92955 0.95456 0.07539
 C1355 C 0.90565 0.95807 0.07088
 C1356 C 0.88962 0.94333 0.08645
 C1357 C 0.88079 0.90745 0.12034
 N1358 N 0.85781 0.91195 0.12273
 N1359 N 0.84329 0.89592 0.13455
 C1360 C 0.85116 0.87470 0.14411
 N1361 N 0.87409 0.87028 0.14167
 N1362 N 0.88858 0.88630 0.13012
 C1363 C 0.83531 0.85650 0.15676
 C1364 C 0.84218 0.83319 0.15627
 C1365 C 0.82788 0.81585 0.16905
 C1366 C 0.80642 0.82136 0.18310
 C1367 C 0.79938 0.84467 0.18336
 C1368 C 0.81362 0.86206 0.17004
 H1369 H 0.92746 0.90792 0.12772
 H1370 H 0.95515 0.93340 0.10117
 H1371 H 0.89935 0.97176 0.05461
 H1372 H 0.87136 0.94599 0.08177
 H1373 H 0.85871 0.82829 0.14600
 H1374 H 0.83392 0.79812 0.16853
 H1375 H 0.78292 0.84948 0.19395
 H1376 H 0.80788 0.87988 0.17081
 C1377 C 0.89057 0.08285 0.90095
 C1378 C 0.91402 0.08838 0.89689
 C1379 C 0.93118 0.07419 0.91042
 C1380 C 0.92533 0.05424 0.92881
 C1381 C 0.90185 0.04838 0.93235
 C1382 C 0.88461 0.06247 0.91826
 C1383 C 0.87271 0.09901 0.88833
 N1384 N 0.85086 0.09176 0.88108
 N1385 N 0.83505 0.10668 0.86961
 C1386 C 0.84045 0.12944 0.86536
 N1387 N 0.86224 0.13660 0.87280
 N1388 N 0.87803 0.12171 0.88395
 C1389 C 0.82340 0.14631 0.85232
 C1390 C 0.82675 0.16999 0.85852
 C1391 C 0.81227 0.18645 0.84391
 C1392 C 0.79414 0.17973 0.82235
 C1393 C 0.79016 0.15595 0.81714
 C1394 C 0.80460 0.13936 0.83219
 H1395 H 0.91917 0.10387 0.88342
 H1396 H 0.94906 0.07928 0.90725
 H1397 H 0.89679 0.03308 0.94630
 H1398 H 0.86665 0.05783 0.92181
 H1399 H 0.84089 0.17588 0.87427
 H1400 H 0.81586 0.20456 0.84873
 H1401 H 0.77631 0.15018 0.80077
 H1402 H 0.80162 0.12119 0.82702
 C1403 C 0.10842 0.58488 0.59446
 C1404 C 0.08880 0.57928 0.61338
 C1405 C 0.07120 0.56553 0.59972
 C1406 C 0.07320 0.55663 0.56722
 C1407 C 0.09310 0.56173 0.54863
 C1408 C 0.11042 0.57598 0.56196
 C1409 C 0.12644 0.60035 0.60834
 N1410 N 0.13895 0.61440 0.58793
 N1411 N 0.15462 0.62896 0.60060
 C1412 C 0.15858 0.62982 0.63414
 N1413 N 0.14623 0.61559 0.65449
 N1414 N 0.13039 0.60123 0.64186
 C1415 C 0.17531 0.64647 0.64854
 C1416 C 0.18625 0.64162 0.67927
 C1417 C 0.20075 0.65800 0.69427
 C1418 C 0.20421 0.67978 0.67923
 C1419 C 0.19369 0.68445 0.64808
 C1420 C 0.17959 0.66782 0.63267
 H1421 H 0.08680 0.58601 0.63845
 H1422 H 0.05604 0.56183 0.61456
 H1423 H 0.09499 0.55521 0.52345
 H1424 H 0.12541 0.57996 0.54691
 H1425 H 0.18336 0.62524 0.69192
 H1426 H 0.20850 0.65394 0.71837
 H1427 H 0.19609 0.70108 0.63591
 H1428 H 0.17131 0.67201 0.60900
 C1429 C 0.60134 0.91572 0.38842
 C1430 C 0.60868 0.93561 0.40574
 C1431 C 0.59256 0.95030 0.42066
 C1432 C 0.56873 0.94554 0.41827
 C1433 C 0.56144 0.92602 0.40007
 C1434 C 0.57752 0.91127 0.38548
 C1435 C 0.61824 0.89918 0.37441
 N1436 N 0.61134 0.87758 0.36540
 N1437 N 0.62638 0.86238 0.35349
 C1438 C 0.64900 0.86810 0.34991
 N1439 N 0.65596 0.88976 0.35873
 N1440 N 0.64089 0.90496 0.37086
 C1441 C 0.66554 0.85087 0.33672
 C1442 C 0.68731 0.85759 0.32454
 C1443 C 0.70229 0.84115 0.31089
 C1444 C 0.69591 0.81763 0.30957
 C1445 C 0.67436 0.81095 0.32249
 C1446 C 0.65935 0.82733 0.33570
 H1447 H 0.62691 0.93953 0.40849
 H1448 H 0.59880 0.96519 0.43447
 H1449 H 0.54326 0.92175 0.39769
 H1450 H 0.57123 0.89621 0.37212
 H1451 H 0.69258 0.87560 0.32496
 H1452 H 0.71879 0.84688 0.30121
 H1453 H 0.66879 0.79303 0.32184
 H1454 H 0.64281 0.82150 0.34508
 C1455 C 0.39903 0.42384 0.11486
 C1456 C 0.42278 0.42074 0.12092
 C1457 C 0.43913 0.43373 0.10344
 C1458 C 0.43218 0.45012 0.07928
 C1459 C 0.40839 0.45377 0.07392
 C1460 C 0.39198 0.44081 0.09161
 C1461 C 0.38200 0.40843 0.13138
 N1462 N 0.35892 0.41270 0.12967
 N1463 N 0.34377 0.39797 0.14319
 C1464 C 0.35114 0.37830 0.15873
 N1465 N 0.37420 0.37421 0.16066
 N1466 N 0.38928 0.38895 0.14736
 C1467 C 0.33466 0.36096 0.17205
 C1468 C 0.34205 0.33806 0.17696
 C1469 C 0.32697 0.32129 0.18919
 C1470 C 0.30410 0.32696 0.19733
 C1471 C 0.29661 0.34991 0.19269
 C1472 C 0.31172 0.36675 0.17980
 H1473 H 0.42884 0.40796 0.13885
 H1474 H 0.45726 0.43049 0.10839
 H1475 H 0.40241 0.46632 0.05558
 H1476 H 0.37382 0.44362 0.08634
 H1477 H 0.35953 0.33295 0.17104
 H1478 H 0.33341 0.30384 0.19270
 H1479 H 0.27908 0.35477 0.19875
 H1480 H 0.30558 0.38430 0.17630
 C1481 C 0.61040 0.58008 0.08464
 C1482 C 0.59150 0.57395 0.10472
 C1483 C 0.57388 0.55986 0.09200
 C1484 C 0.57520 0.55114 0.05935
 C1485 C 0.59436 0.55679 0.03953
 C1486 C 0.61168 0.57141 0.05193
 C1487 C 0.62837 0.59588 0.09764
 N1488 N 0.63957 0.61073 0.07683
 N1489 N 0.65509 0.62569 0.08887
 C1490 C 0.66020 0.62614 0.12211
 N1491 N 0.64917 0.61110 0.14283
 N1492 N 0.63348 0.59634 0.13086
 C1493 C 0.67665 0.64323 0.13590
 C1494 C 0.68902 0.63821 0.16539
 C1495 C 0.70329 0.65491 0.18000
 C1496 C 0.70501 0.67721 0.16592
 C1497 C 0.69308 0.68205 0.13589
 C1498 C 0.67922 0.66510 0.12080
 H1499 H 0.59007 0.58053 0.12996
 H1500 H 0.55926 0.55569 0.10771
 H1501 H 0.59562 0.55039 0.01416
 H1502 H 0.62612 0.57585 0.03603
 H1503 H 0.68748 0.62140 0.17735
 H1504 H 0.71237 0.65057 0.20298
 H1505 H 0.69417 0.69903 0.12435
 H1506 H 0.66981 0.66940 0.09807
 C1507 C 0.09762 0.91691 0.89683
 C1508 C 0.10485 0.93765 0.91196
 C1509 C 0.08867 0.95276 0.92562
 C1510 C 0.06493 0.94751 0.92410
 C1511 C 0.05773 0.92709 0.90805
 C1512 C 0.07389 0.91193 0.89470
 C1513 C 0.11463 0.90010 0.88426
 N1514 N 0.10810 0.87798 0.87769
 N1515 N 0.12336 0.86257 0.86700
 C1516 C 0.14578 0.86864 0.86233
 N1517 N 0.15233 0.89080 0.86876
 N1518 N 0.13707 0.90621 0.87964
 C1519 C 0.16252 0.85139 0.85025
 C1520 C 0.18388 0.85834 0.83705
 C1521 C 0.19912 0.84193 0.82425
 C1522 C 0.19338 0.81824 0.82478
 C1523 C 0.17225 0.81131 0.83877
 C1524 C 0.15696 0.82770 0.85121
 H1525 H 0.12303 0.94195 0.91400
 H1526 H 0.09479 0.96836 0.93779
 H1527 H 0.03960 0.92248 0.90643
 H1528 H 0.06774 0.89618 0.88296
 H1529 H 0.18863 0.87648 0.83594
 H1530 H 0.21529 0.84783 0.81367
 H1531 H 0.16724 0.79323 0.83952
 H1532 H 0.14070 0.82177 0.86145
 C1533 C 0.39333 0.08209 0.39989
 C1534 C 0.41678 0.08788 0.39654
 C1535 C 0.43393 0.07301 0.40841
 C1536 C 0.42810 0.05209 0.42440
 C1537 C 0.40462 0.04603 0.42727
 C1538 C 0.38738 0.06083 0.41483
 C1539 C 0.37547 0.09877 0.38882
 N1540 N 0.35365 0.09180 0.38086
 N1541 N 0.33786 0.10713 0.37057
 C1542 C 0.34325 0.13002 0.36823
 N1543 N 0.36500 0.13691 0.37641
 N1544 N 0.38077 0.12162 0.38640
 C1545 C 0.32621 0.14729 0.35626
 C1546 C 0.32966 0.17082 0.36349
 C1547 C 0.31496 0.18761 0.35013
 C1548 C 0.29653 0.18135 0.32884
 C1549 C 0.29257 0.15771 0.32244
 C1550 C 0.30721 0.14081 0.33623
 H1551 H 0.42193 0.10404 0.38488
 H1552 H 0.45181 0.07828 0.40585
 H1553 H 0.39957 0.03000 0.43940
 H1554 H 0.36942 0.05596 0.41778
 H1555 H 0.34401 0.17636 0.37914
 H1556 H 0.31856 0.20561 0.35571
 H1557 H 0.27849 0.15229 0.30622
 H1558 H 0.30414 0.12278 0.33023
 C1559 C 0.89679 0.42526 0.61464
 C1560 C 0.92048 0.42194 0.62068
 C1561 C 0.93681 0.43653 0.60610
 C1562 C 0.92988 0.45475 0.58486
 C1563 C 0.90611 0.45864 0.57975
 C1564 C 0.88971 0.44408 0.59463
 C1565 C 0.87988 0.40829 0.62769
 N1566 N 0.85691 0.41311 0.62857
 N1567 N 0.84183 0.39729 0.63935
 C1568 C 0.84912 0.37598 0.64935
 N1569 N 0.87206 0.37125 0.64851
 N1570 N 0.88710 0.38707 0.63798
 C1571 C 0.83264 0.35801 0.66060
 C1572 C 0.83927 0.33464 0.66063
 C1573 C 0.82425 0.31749 0.67203
 C1574 C 0.80229 0.32329 0.68409
 C1575 C 0.79550 0.34667 0.68377
 C1576 C 0.81048 0.36387 0.67186
 H1577 H 0.92651 0.40775 0.63627
 H1578 H 0.95493 0.43304 0.61077
 H1579 H 0.90017 0.47256 0.56360
 H1580 H 0.87156 0.44708 0.58953
 H1581 H 0.85616 0.32954 0.65186
 H1582 H 0.83010 0.29969 0.67203
 H1583 H 0.77867 0.35168 0.69287
 H1584 H 0.80493 0.38176 0.67215
 C1585 C 0.90234 0.58598 0.08742
 C1586 C 0.89468 0.56616 0.07016
 C1587 C 0.91047 0.55180 0.05379
 C1588 C 0.93429 0.55686 0.05460
 C1589 C 0.94185 0.57663 0.07201
 C1590 C 0.92612 0.59099 0.08807
 C1591 C 0.88589 0.60167 0.10448
 N1592 N 0.89323 0.62253 0.11604
 N1593 N 0.87876 0.63684 0.13123
 C1594 C 0.85627 0.63094 0.13574
 N1595 N 0.84886 0.61002 0.12431
 N1596 N 0.86336 0.59569 0.10895
 C1597 C 0.84031 0.64737 0.15231
 C1598 C 0.81814 0.64050 0.16278
 C1599 C 0.80337 0.65637 0.17828
 C1600 C 0.81037 0.67947 0.18321
 C1601 C 0.83256 0.68620 0.17278
 C1602 C 0.84732 0.67038 0.15772
 H1603 H 0.87647 0.56183 0.06907
 H1604 H 0.90404 0.53671 0.04063
 H1605 H 0.96001 0.58117 0.07317
 H1606 H 0.93271 0.60605 0.10114
 H1607 H 0.81223 0.62288 0.15909
 H1608 H 0.78636 0.65065 0.18593
 H1609 H 0.83862 0.70380 0.17630
 H1610 H 0.86422 0.67635 0.14998
 C1611 C 0.60423 0.41975 0.58722
 C1612 C 0.58509 0.42675 0.60602
 C1613 C 0.56801 0.44072 0.59160
 C1614 C 0.57000 0.44842 0.55834
 C1615 C 0.58939 0.44188 0.53972
 C1616 C 0.60622 0.42743 0.55392
 C1617 C 0.62163 0.40401 0.60212
 N1618 N 0.63401 0.38952 0.58254
 N1619 N 0.64892 0.37458 0.59616
 C1620 C 0.65220 0.37372 0.62986
 N1621 N 0.64003 0.38841 0.64939
 N1622 N 0.62496 0.40318 0.63580
 C1623 C 0.66799 0.35652 0.64517
 C1624 C 0.67787 0.36045 0.67690
 C1625 C 0.69195 0.34371 0.69203
 C1626 C 0.69599 0.32250 0.67604
 C1627 C 0.68628 0.31866 0.64417
 C1628 C 0.67262 0.33561 0.62873
 H1629 H 0.58305 0.42098 0.63167
 H1630 H 0.55327 0.44560 0.60651
 H1631 H 0.59125 0.44748 0.51395
 H1632 H 0.62083 0.42233 0.53890
 H1633 H 0.67466 0.37646 0.69006
 H1634 H 0.69916 0.34710 0.71665
 H1635 H 0.68922 0.30251 0.63120
 H1636 H 0.66516 0.33207 0.60432
 C1637 C 0.10032 0.08010 0.39280
 C1638 C 0.10822 0.06269 0.41482
 C1639 C 0.09248 0.04798 0.43099
 C1640 C 0.06856 0.05032 0.42526
 C1641 C 0.06085 0.06738 0.40257
 C1642 C 0.07648 0.08206 0.38667
 C1643 C 0.11647 0.09679 0.37702
 N1644 N 0.10818 0.11638 0.36241
 N1645 N 0.12240 0.13186 0.34885
 C1646 C 0.14558 0.12842 0.34913
 N1647 N 0.15397 0.10874 0.36353
 N1648 N 0.13969 0.09326 0.37730
 C1649 C 0.16118 0.14620 0.33475
 C1650 C 0.18427 0.14110 0.32700
 C1651 C 0.19874 0.15821 0.31350
 C1652 C 0.19047 0.18081 0.30804
 C1653 C 0.16740 0.18582 0.31582
 C1654 C 0.15292 0.16872 0.32878
 H1655 H 0.12649 0.06076 0.42011
 H1656 H 0.09902 0.03503 0.44831
 H1657 H 0.04260 0.06970 0.39737
 H1658 H 0.06977 0.09513 0.36968
 H1659 H 0.19111 0.12389 0.33122
 H1660 H 0.21648 0.15387 0.30787
 H1661 H 0.16045 0.20302 0.31176
 H1662 H 0.13527 0.17328 0.33456
 C1663 C 0.39225 0.91593 0.92556
 C1664 C 0.41538 0.90886 0.92847
 C1665 C 0.43217 0.92378 0.94133
 C1666 C 0.42630 0.94611 0.95207
 C1667 C 0.40310 0.95320 0.94966
 C1668 C 0.38624 0.93829 0.93620
 C1669 C 0.37485 0.89974 0.91138
 N1670 N 0.35434 0.90734 0.89869
 N1671 N 0.33933 0.89253 0.88482
 C1672 C 0.34422 0.86952 0.88330
 N1673 N 0.36462 0.86201 0.89628
 N1674 N 0.37960 0.87677 0.90992
 C1675 C 0.32818 0.85276 0.86719
 C1676 C 0.33193 0.82890 0.87147
 C1677 C 0.31805 0.81275 0.85501
 C1678 C 0.30000 0.81992 0.83360
 C1679 C 0.29582 0.84380 0.82981
 C1680 C 0.30975 0.86008 0.84655
 H1681 H 0.42066 0.89181 0.92041
 H1682 H 0.44983 0.91768 0.94305
 H1683 H 0.39807 0.97032 0.95771
 H1684 H 0.36853 0.94418 0.93438
 H1685 H 0.34581 0.82259 0.88737
 H1686 H 0.32179 0.79455 0.85878
 H1687 H 0.28202 0.84992 0.81360
 H1688 H 0.30642 0.87835 0.84273
 C1689 C 0.10788 0.91928 0.59805
 C1690 C 0.08748 0.92495 0.61491
 C1691 C 0.07051 0.93840 0.59921
 C1692 C 0.07378 0.94692 0.56657
 C1693 C 0.09449 0.94189 0.55003
 C1694 C 0.11127 0.92795 0.56548
 C1695 C 0.12503 0.90370 0.61403
 N1696 N 0.13912 0.89039 0.59514
 N1697 N 0.15364 0.87541 0.60953
 C1698 C 0.15481 0.87328 0.64341
 N1699 N 0.14094 0.88682 0.66230
 N1700 N 0.12627 0.90164 0.64790
 C1701 C 0.17018 0.85593 0.65939
 C1702 C 0.17770 0.85865 0.69271
 C1703 C 0.19160 0.84184 0.70809
 C1704 C 0.19782 0.82174 0.69068
 C1705 C 0.19033 0.81904 0.65737
 C1706 C 0.17687 0.83608 0.64176
 H1707 H 0.08433 0.91845 0.63995
 H1708 H 0.05477 0.94212 0.61262
 H1709 H 0.09741 0.94819 0.52482
 H1710 H 0.12688 0.92392 0.55195
 H1711 H 0.17285 0.87380 0.70688
 H1712 H 0.19704 0.84430 0.73386
 H1713 H 0.19495 0.80376 0.64332
 H1714 H 0.17123 0.83345 0.61613
 C1715 C 0.60136 0.58083 0.38980
 C1716 C 0.60614 0.57023 0.42082
 C1717 C 0.58948 0.55650 0.43658
 C1718 C 0.56748 0.55352 0.42202
 C1719 C 0.56272 0.56403 0.39091
 C1720 C 0.57960 0.57733 0.37476
 C1721 C 0.61870 0.59617 0.37396
 N1722 N 0.61890 0.59951 0.34025
 N1723 N 0.63415 0.61390 0.32627
 C1724 C 0.64962 0.62570 0.34551
 N1725 N 0.64943 0.62233 0.37919
 N1726 N 0.63437 0.60776 0.39310
 C1727 C 0.66570 0.64270 0.33043
 C1728 C 0.67285 0.66212 0.34887
 C1729 C 0.68717 0.67886 0.33446
 C1730 C 0.69516 0.67624 0.30160
 C1731 C 0.68854 0.65653 0.28336
 C1732 C 0.67364 0.64005 0.29749
 H1733 H 0.62280 0.57256 0.43293
 H1734 H 0.59362 0.54869 0.46059
 H1735 H 0.54595 0.56194 0.37904
 H1736 H 0.57541 0.58539 0.35094
 H1737 H 0.66691 0.66468 0.37423
 H1738 H 0.69210 0.69387 0.34909
 H1739 H 0.69437 0.65422 0.25793
 H1740 H 0.66843 0.62519 0.28277
 C1741 C 0.39967 0.09101 0.10307
 C1742 C 0.39237 0.06956 0.09008
 C1743 C 0.40814 0.05486 0.07436
 C1744 C 0.43153 0.06124 0.07165
 C1745 C 0.43873 0.08265 0.08479
 C1746 C 0.42302 0.09733 0.10016
 C1747 C 0.38327 0.10700 0.11940
 N1748 N 0.38993 0.12897 0.12675
 N1749 N 0.37549 0.14356 0.14140
 C1750 C 0.35375 0.13685 0.14952
 N1751 N 0.34703 0.11483 0.14228
 N1752 N 0.36149 0.10020 0.12747
 C1753 C 0.33785 0.15346 0.16557
 C1754 C 0.31673 0.14616 0.17934
 C1755 C 0.30197 0.16216 0.19444
 C1756 C 0.30794 0.18578 0.19573
 C1757 C 0.32908 0.19297 0.18198
 C1758 C 0.34384 0.17703 0.16723
 H1759 H 0.37447 0.06420 0.09185
 H1760 H 0.40205 0.03845 0.06459
 H1761 H 0.45657 0.08822 0.08309
 H1762 H 0.42931 0.11367 0.10992
 H1763 H 0.31165 0.12811 0.17858
 H1764 H 0.28580 0.15606 0.20477
 H1765 H 0.33432 0.21099 0.18263
 H1766 H 0.35993 0.18331 0.15686
 C1767 C 0.89484 0.41694 0.90200
 C1768 C 0.91830 0.41212 0.89723
 C1769 C 0.93537 0.42651 0.91048
 C1770 C 0.92963 0.44620 0.92958
 C1771 C 0.90592 0.45110 0.93413
 C1772 C 0.88876 0.43673 0.92023
 C1773 C 0.87722 0.40079 0.88843
 N1774 N 0.85525 0.40773 0.88144
 N1775 N 0.83987 0.39293 0.86841
 C1776 C 0.84583 0.37060 0.86216
 N1777 N 0.86772 0.36374 0.86940
 N1778 N 0.88307 0.37850 0.88212
 C1779 C 0.82921 0.35382 0.84753
 C1780 C 0.83345 0.32999 0.85086
 C1781 C 0.81884 0.31381 0.83585
 C1782 C 0.79962 0.32096 0.81672
 C1783 C 0.79509 0.34483 0.81368
 C1784 C 0.80968 0.36112 0.82917
 H1785 H 0.92357 0.39713 0.88303
 H1786 H 0.95318 0.42180 0.90591
 H1787 H 0.90051 0.46602 0.94840
 H1788 H 0.87076 0.44083 0.92432
 H1789 H 0.84824 0.32376 0.86502
 H1790 H 0.82294 0.29562 0.83878
 H1791 H 0.78041 0.35092 0.79917
 H1792 H 0.80601 0.37939 0.82608
 C1793 C 0.60242 0.07866 0.89476
 C1794 C 0.60752 0.06733 0.92505
 C1795 C 0.59116 0.05302 0.94013
 C1796 C 0.56910 0.05017 0.92567
 C1797 C 0.56417 0.06104 0.89487
 C1798 C 0.58082 0.07496 0.87934
 C1799 C 0.61917 0.09513 0.88039
 N1800 N 0.61997 0.09901 0.84687
 N1801 N 0.63483 0.11434 0.83421
 C1802 C 0.64922 0.12655 0.85462
 N1803 N 0.64835 0.12271 0.88813
 N1804 N 0.63370 0.10721 0.90075
 C1805 C 0.66510 0.14406 0.84073
 C1806 C 0.67105 0.16380 0.85938
 C1807 C 0.68516 0.18098 0.84553
 C1808 C 0.69404 0.17837 0.81318
 C1809 C 0.68863 0.15830 0.79495
 C1810 C 0.67404 0.14143 0.80843
 H1811 H 0.62413 0.06974 0.93729
 H1812 H 0.59553 0.04487 0.96380
 H1813 H 0.54736 0.05910 0.88309
 H1814 H 0.57647 0.08356 0.85597
 H1815 H 0.66428 0.16625 0.88431
 H1816 H 0.68911 0.19631 0.86007
 H1817 H 0.69513 0.15596 0.76987
 H1818 H 0.66979 0.12630 0.79364
 C1819 C 0.39862 0.58510 0.60357
 C1820 C 0.39127 0.56499 0.58685
 C1821 C 0.40734 0.55058 0.57139
 C1822 C 0.43108 0.55588 0.57273
 C1823 C 0.43840 0.57554 0.59054
 C1824 C 0.42237 0.59003 0.60562
 C1825 C 0.38177 0.60150 0.61769
 N1826 N 0.38832 0.62355 0.62470
 N1827 N 0.37326 0.63867 0.63673
 C1828 C 0.35102 0.63238 0.64238
 N1829 N 0.34443 0.61027 0.63554
 N1830 N 0.35949 0.59515 0.62327
 C1831 C 0.33457 0.64938 0.65599
 C1832 C 0.31403 0.64220 0.67148
 C1833 C 0.29938 0.65845 0.68611
 C1834 C 0.30488 0.68220 0.68511
 C1835 C 0.32506 0.68934 0.66863
 C1836 C 0.33977 0.67313 0.65442
 H1837 H 0.37307 0.56075 0.58487
 H1838 H 0.40114 0.53549 0.55799
 H1839 H 0.45653 0.58017 0.59211
 H1840 H 0.42862 0.60527 0.61858
 H1841 H 0.30958 0.62399 0.67306
 H1842 H 0.28391 0.65240 0.69853
 H1843 H 0.32987 0.70746 0.66739
 H1844 H 0.35536 0.67925 0.64239
 C1845 C 0.11073 0.42418 0.08846
 C1846 C 0.09098 0.43043 0.10653
 C1847 C 0.07364 0.44381 0.09148
 C1848 C 0.07596 0.45164 0.05832
 C1849 C 0.09605 0.44601 0.04061
 C1850 C 0.11315 0.43221 0.05542
 C1851 C 0.12829 0.40869 0.10362
 N1852 N 0.14183 0.39526 0.08405
 N1853 N 0.15694 0.38054 0.09772
 C1854 C 0.15928 0.37884 0.13151
 N1855 N 0.14592 0.39246 0.15106
 N1856 N 0.13066 0.40701 0.13740
 C1857 C 0.17531 0.36185 0.14687
 C1858 C 0.18346 0.36498 0.17976
 C1859 C 0.19737 0.34824 0.19515
 C1860 C 0.20308 0.32778 0.17820
 C1861 C 0.19532 0.32484 0.14505
 C1862 C 0.18177 0.34183 0.12941
 H1863 H 0.08861 0.42441 0.13200
 H1864 H 0.05836 0.44793 0.10571
 H1865 H 0.09822 0.45166 0.01492
 H1866 H 0.12822 0.42775 0.04095
 H1867 H 0.17887 0.38029 0.19376
 H1868 H 0.20294 0.35094 0.22081
 H1869 H 0.19947 0.30926 0.13137
 H1870 H 0.17569 0.33893 0.10405
 C1871 C 0.89150 0.91525 0.40977
 C1872 C 0.91469 0.90822 0.40929
 C1873 C 0.93210 0.92266 0.42150
 C1874 C 0.92675 0.94439 0.43503
 C1875 C 0.90356 0.95163 0.43521
 C1876 C 0.88609 0.93725 0.42234
 C1877 C 0.87332 0.89919 0.39786
 N1878 N 0.85274 0.90704 0.38576
 N1879 N 0.83689 0.89225 0.37405
 C1880 C 0.84092 0.86906 0.37437
 N1881 N 0.86137 0.86131 0.38683
 N1882 N 0.87724 0.87604 0.39824
 C1883 C 0.82412 0.85239 0.36005
 C1884 C 0.82595 0.82878 0.36818
 C1885 C 0.81211 0.81241 0.35205
 C1886 C 0.79620 0.81919 0.32712
 C1887 C 0.79356 0.84296 0.32006
 C1888 C 0.80734 0.85942 0.33651
 H1889 H 0.91942 0.89145 0.39948
 H1890 H 0.94975 0.91648 0.42111
 H1891 H 0.89894 0.96832 0.44541
 H1892 H 0.86833 0.94307 0.42301
 H1893 H 0.83851 0.82282 0.38652
 H1894 H 0.81455 0.79431 0.35838
 H1895 H 0.78139 0.84879 0.30110
 H1896 H 0.80554 0.87752 0.32976
 C1897 C 0.89978 0.59115 0.60319
 C1898 C 0.89248 0.56967 0.59033
 C1899 C 0.90822 0.55496 0.57457
 C1900 C 0.93160 0.56138 0.57170
 C1901 C 0.93880 0.58282 0.58471
 C1902 C 0.92312 0.59751 0.60012
 C1903 C 0.88341 0.60714 0.61957
 N1904 N 0.89003 0.62916 0.62671
 N1905 N 0.87562 0.64375 0.64142
 C1906 C 0.85393 0.63698 0.64978
 N1907 N 0.84725 0.61492 0.64274
 N1908 N 0.86169 0.60030 0.62787
 C1909 C 0.83806 0.65358 0.66591
 C1910 C 0.81706 0.64625 0.68000
 C1911 C 0.80234 0.66224 0.69522
 C1912 C 0.80825 0.68588 0.69632
 C1913 C 0.82926 0.69310 0.68222
 C1914 C 0.84398 0.67718 0.66735
 H1915 H 0.87459 0.56429 0.59222
 H1916 H 0.90213 0.53853 0.56490
 H1917 H 0.95663 0.58840 0.58288
 H1918 H 0.92941 0.61387 0.60978
 H1919 H 0.81204 0.62818 0.67940
 H1920 H 0.78627 0.65611 0.70582
 H1921 H 0.83445 0.71114 0.68271
 H1922 H 0.85998 0.68348 0.65673
 C1923 C 0.60775 0.41880 0.09769
 C1924 C 0.58729 0.42438 0.11447
 C1925 C 0.57032 0.43781 0.09873
 C1926 C 0.57365 0.44640 0.06614
 C1927 C 0.59440 0.44145 0.04968
 C1928 C 0.61118 0.42752 0.06516
 C1929 C 0.62493 0.40329 0.11372
 N1930 N 0.63913 0.39005 0.09488
 N1931 N 0.65369 0.37514 0.10932
 C1932 C 0.65481 0.37300 0.14320
 N1933 N 0.64083 0.38646 0.16205
 N1934 N 0.62612 0.40121 0.14760
 C1935 C 0.67022 0.35572 0.15923
 C1936 C 0.67768 0.35846 0.19258
 C1937 C 0.69162 0.34169 0.20800
 C1938 C 0.69793 0.32161 0.19061
 C1939 C 0.69051 0.31890 0.15727
 C1940 C 0.67702 0.33590 0.14162
 H1941 H 0.58411 0.41784 0.13947
 H1942 H 0.55455 0.44148 0.11209
 H1943 H 0.59736 0.44780 0.02451
 H1944 H 0.62684 0.42357 0.05170
 H1945 H 0.67275 0.37359 0.20673
 H1946 H 0.69700 0.34416 0.23379
 H1947 H 0.69521 0.30364 0.14324
 H1948 H 0.67143 0.33325 0.11597
 C1949 C 0.39320 0.91495 0.40735
 C1950 C 0.41586 0.90696 0.41237
 C1951 C 0.43287 0.92149 0.42553
 C1952 C 0.42767 0.94437 0.43448
 C1953 C 0.40493 0.95242 0.42993
 C1954 C 0.38787 0.93788 0.41617
 C1955 C 0.37555 0.89911 0.39299
 N1956 N 0.35582 0.90722 0.37843
 N1957 N 0.34057 0.89265 0.36458
 C1958 C 0.34440 0.86941 0.36494
 N1959 N 0.36402 0.86142 0.37975
 N1960 N 0.37926 0.87592 0.39337
 C1961 C 0.32801 0.85287 0.34912
 C1962 C 0.33021 0.82907 0.35579
 C1963 C 0.31589 0.81302 0.33991
 C1964 C 0.29896 0.82024 0.31669
 C1965 C 0.29639 0.84411 0.31036
 C1966 C 0.31073 0.86028 0.32654
 H1967 H 0.42061 0.88945 0.40575
 H1968 H 0.45017 0.91469 0.42889
 H1969 H 0.40045 0.97001 0.43651
 H1970 H 0.37053 0.94450 0.41268
 H1971 H 0.34319 0.82271 0.37321
 H1972 H 0.31840 0.79484 0.34559
 H1973 H 0.28351 0.85027 0.29265
 H1974 H 0.30863 0.87851 0.32083
 C1975 C 0.10103 0.08126 0.88997
 C1976 C 0.10585 0.07075 0.92104
 C1977 C 0.08927 0.05690 0.93679
 C1978 C 0.06733 0.05373 0.92217
 C1979 C 0.06253 0.06414 0.89100
 C1980 C 0.07933 0.07755 0.87486
 C1981 C 0.11825 0.09673 0.87414
 N1982 N 0.11854 0.09992 0.84040
 N1983 N 0.13367 0.11443 0.82641
 C1984 C 0.14892 0.12652 0.84566
 N1985 N 0.14863 0.12329 0.87936
 N1986 N 0.13370 0.10861 0.89329
 C1987 C 0.16486 0.14361 0.83053
 C1988 C 0.17167 0.16325 0.84878
 C1989 C 0.18591 0.18003 0.83432
 C1990 C 0.19417 0.17726 0.80163
 C1991 C 0.18788 0.15736 0.78359
 C1992 C 0.17305 0.14082 0.79775
 H1993 H 0.12247 0.07324 0.93320
 H1994 H 0.09343 0.04916 0.96085
 H1995 H 0.04580 0.06190 0.87909
 H1996 H 0.07511 0.08554 0.85100
 H1997 H 0.16553 0.16591 0.87401
 H1998 H 0.19059 0.19519 0.84880
 H1999 H 0.19392 0.15492 0.75830
 H2000 H 0.16811 0.12580 0.78318
 C2001 C 0.10434 0.91944 0.08647
 C2002 C 0.08526 0.92642 0.10539
 C2003 C 0.06816 0.94044 0.09110
 C2004 C 0.07009 0.94821 0.05787
 C2005 C 0.08943 0.94169 0.03914
 C2006 C 0.10628 0.92719 0.05320
 C2007 C 0.12176 0.90366 0.10124
 N2008 N 0.13408 0.88918 0.08156
 N2009 N 0.14901 0.87422 0.09506
 C2010 C 0.15237 0.87330 0.12875
 N2011 N 0.14025 0.88798 0.14838
 N2012 N 0.12517 0.90278 0.13491
 C2013 C 0.16817 0.85607 0.14395
 C2014 C 0.17810 0.85996 0.17566
 C2015 C 0.19218 0.84319 0.19071
 C2016 C 0.19617 0.82199 0.17467
 C2017 C 0.18643 0.81820 0.14281
 C2018 C 0.17277 0.83518 0.12744
 H2019 H 0.08326 0.92060 0.13102
 H2020 H 0.05346 0.94530 0.10610
 H2021 H 0.09124 0.94735 0.01338
 H2022 H 0.12085 0.92211 0.03809
 H2023 H 0.17492 0.87596 0.18888
 H2024 H 0.19941 0.84655 0.21532
 H2025 H 0.18932 0.80206 0.12980
 H2026 H 0.16526 0.83168 0.10304
 C2027 C 0.89201 0.41596 0.42596
 C2028 C 0.91512 0.40885 0.42903
 C2029 C 0.93192 0.42377 0.44182
 C2030 C 0.92608 0.44617 0.45233
 C2031 C 0.90291 0.45330 0.44977
 C2032 C 0.88603 0.43838 0.43638
 C2033 C 0.87461 0.39976 0.41181
 N2034 N 0.85417 0.40738 0.39889
 N2035 N 0.83918 0.39255 0.38500
 C2036 C 0.84400 0.36953 0.38370
 N2037 N 0.86433 0.36201 0.39692
 N2038 N 0.87930 0.37677 0.41058
 C2039 C 0.82800 0.35275 0.36755
 C2040 C 0.83170 0.32890 0.37194
 C2041 C 0.81787 0.31273 0.35544
 C2042 C 0.79991 0.31988 0.33385
 C2043 C 0.79578 0.34377 0.32994
 C2044 C 0.80966 0.36006 0.34674
 H2045 H 0.92037 0.39175 0.42115
 H2046 H 0.94956 0.41764 0.44366
 H2047 H 0.89791 0.47048 0.45765
 H2048 H 0.86834 0.44431 0.43443
 H2049 H 0.84552 0.32260 0.38798
 H2050 H 0.82158 0.29454 0.35930
 H2051 H 0.78204 0.34988 0.31361
 H2052 H 0.80636 0.37832 0.34282
 C2053 C 0.40276 0.08656 0.59059
 C2054 C 0.39511 0.06665 0.57355
 C2055 C 0.41090 0.05227 0.55721
 C2056 C 0.43470 0.05740 0.55782
 C2057 C 0.44226 0.07726 0.57503
 C2058 C 0.42653 0.09164 0.59107
 C2059 C 0.38627 0.10224 0.60755
 N2060 N 0.39355 0.12312 0.61912
 N2061 N 0.37899 0.13744 0.63414
 C2062 C 0.35648 0.13154 0.63844
 N2063 N 0.34914 0.11059 0.62702
 N2064 N 0.36373 0.09625 0.61184
 C2065 C 0.34040 0.14798 0.65471
 C2066 C 0.31814 0.14113 0.66480
 C2067 C 0.30321 0.15703 0.67992
 C2068 C 0.31016 0.18015 0.68486
 C2069 C 0.33245 0.18685 0.67484
 C2070 C 0.34736 0.17100 0.66015
 H2071 H 0.37691 0.06225 0.57259
 H2072 H 0.40446 0.03711 0.54424
 H2073 H 0.46042 0.08183 0.57603
 H2074 H 0.43310 0.10677 0.60398
 H2075 H 0.31226 0.12350 0.66107
 H2076 H 0.28614 0.15132 0.68727
 H2077 H 0.33847 0.20446 0.67839
 H2078 H 0.36432 0.17696 0.65271
 C2079 C 0.60078 0.58000 0.89347
 C2080 C 0.60857 0.56237 0.91520
 C2081 C 0.59274 0.54764 0.93115
 C2082 C 0.56885 0.55016 0.92546
 C2083 C 0.56123 0.56743 0.90303
 C2084 C 0.57695 0.58214 0.88736
 C2085 C 0.61704 0.59673 0.87799
 N2086 N 0.60887 0.61651 0.86379
 N2087 N 0.62319 0.63202 0.85051
 C2088 C 0.64635 0.62842 0.85068
 N2089 N 0.65460 0.60854 0.86465
 N2090 N 0.64024 0.59303 0.87814
 C2091 C 0.66205 0.64622 0.83659
 C2092 C 0.68506 0.64102 0.82854
 C2093 C 0.69960 0.65815 0.81520
 C2094 C 0.69147 0.68085 0.81022
 C2095 C 0.66849 0.68596 0.81836
 C2096 C 0.65394 0.66885 0.83115
 H2097 H 0.62683 0.56030 0.92048
 H2098 H 0.59921 0.53453 0.94826
 H2099 H 0.54300 0.56991 0.89787
 H2100 H 0.57033 0.59538 0.87058
 H2101 H 0.69178 0.62372 0.83235
 H2102 H 0.71727 0.65372 0.80928
 H2103 H 0.66164 0.70323 0.81468
 H2104 H 0.63635 0.67349 0.83718
 C2105 C 0.39107 0.41590 0.90933
 C2106 C 0.41420 0.40869 0.90885
 C2107 C 0.43172 0.42301 0.92103
 C2108 C 0.42653 0.44478 0.93453
 C2109 C 0.40340 0.45221 0.93468
 C2110 C 0.38582 0.43795 0.92183
 C2111 C 0.37276 0.39995 0.89753
 N2112 N 0.35227 0.40793 0.88529
 N2113 N 0.33629 0.39323 0.87371
 C2114 C 0.34010 0.37000 0.87432
 N2115 N 0.36047 0.36212 0.88692
 N2116 N 0.37646 0.37676 0.89819
 C2117 C 0.32318 0.35341 0.86013
 C2118 C 0.32470 0.32985 0.86869
 C2119 C 0.31080 0.31350 0.85264
 C2120 C 0.29514 0.32024 0.82736
 C2121 C 0.29277 0.34398 0.81990
 C2122 C 0.30661 0.36043 0.83627
 H2123 H 0.41880 0.39187 0.89908
 H2124 H 0.44932 0.41671 0.92067
 H2125 H 0.39890 0.46894 0.94486
 H2126 H 0.36810 0.44390 0.92250
 H2127 H 0.33708 0.32391 0.88729
 H2128 H 0.31302 0.29543 0.85929
 H2129 H 0.28079 0.34979 0.80067
 H2130 H 0.30504 0.37849 0.82920
 C2131 C 0.89873 0.08485 0.10417
 C2132 C 0.89135 0.06480 0.08732
 C2133 C 0.90741 0.05039 0.07182
 C2134 C 0.93116 0.05563 0.07324
 C2135 C 0.93851 0.07522 0.09120
 C2136 C 0.92250 0.08970 0.10632
 C2137 C 0.88191 0.10127 0.11829
 N2138 N 0.88850 0.12328 0.12545
 N2139 N 0.87346 0.13842 0.13745
 C2140 C 0.85118 0.13219 0.14295
 N2141 N 0.84454 0.11012 0.13597
 N2142 N 0.85959 0.09498 0.12372
 C2143 C 0.83475 0.14922 0.15651
 C2144 C 0.81413 0.14207 0.17183
 C2145 C 0.79947 0.15835 0.18640
 C2146 C 0.80504 0.18208 0.18550
 C2147 C 0.82529 0.18919 0.16918
 C2148 C 0.84001 0.17296 0.15504
 H2149 H 0.87315 0.06062 0.08526
 H2150 H 0.90119 0.03536 0.05830
 H2151 H 0.95665 0.07980 0.09284
 H2152 H 0.92876 0.10490 0.11939
 H2153 H 0.80963 0.12388 0.17333
 H2154 H 0.78395 0.15232 0.19870
 H2155 H 0.83015 0.20731 0.16803
 H2156 H 0.85566 0.17905 0.14314
 C2157 C 0.61097 0.92447 0.59140
 C2158 C 0.59128 0.93079 0.60956
 C2159 C 0.57391 0.94416 0.59454
 C2160 C 0.57614 0.95190 0.56133
 C2161 C 0.59617 0.94621 0.54353
 C2162 C 0.61330 0.93243 0.55830
 C2163 C 0.62854 0.90897 0.60649
 N2164 N 0.64202 0.89551 0.58686
 N2165 N 0.65712 0.88076 0.60046
 C2166 C 0.65952 0.87905 0.63425
 N2167 N 0.64622 0.89269 0.65385
 N2168 N 0.63097 0.90728 0.64026
 C2169 C 0.67554 0.86202 0.64951
 C2170 C 0.68376 0.86510 0.68238
 C2171 C 0.69770 0.84832 0.69766
 C2172 C 0.70335 0.82788 0.68062
 C2173 C 0.69550 0.82499 0.64751
 C2174 C 0.68193 0.84201 0.63198
 H2175 H 0.58898 0.92483 0.63507
 H2176 H 0.55867 0.94832 0.60884
 H2177 H 0.59828 0.95179 0.51779
 H2178 H 0.62833 0.92792 0.54376
 H2179 H 0.67923 0.88040 0.69644
 H2180 H 0.70334 0.85099 0.72329
 H2181 H 0.69962 0.80943 0.63377
 H2182 H 0.67579 0.83914 0.60664
 C2183 C 0.10229 0.57832 0.39401
 C2184 C 0.10741 0.56709 0.42437
 C2185 C 0.09103 0.55287 0.43961
 C2186 C 0.06895 0.55002 0.42522
 C2187 C 0.06401 0.56080 0.39436
 C2188 C 0.08066 0.57463 0.37868
 C2189 C 0.11906 0.59471 0.37949
 N2190 N 0.11981 0.59852 0.34594
 N2191 N 0.13466 0.61378 0.33315
 C2192 C 0.14912 0.62601 0.35345
 N2193 N 0.14832 0.62224 0.38698
 N2194 N 0.13366 0.60679 0.39972
 C2195 C 0.16498 0.64349 0.33943
 C2196 C 0.17098 0.66325 0.35802
 C2197 C 0.18506 0.68040 0.34408
 C2198 C 0.19388 0.67776 0.31169
 C2199 C 0.18843 0.65767 0.29352
 C2200 C 0.17386 0.64082 0.30710
 H2201 H 0.12404 0.56950 0.43654
 H2202 H 0.09542 0.54480 0.46333
 H2203 H 0.04717 0.55885 0.38265
 H2204 H 0.07630 0.58315 0.35526
 H2205 H 0.16426 0.66573 0.38297
 H2206 H 0.18905 0.69574 0.35857
 H2207 H 0.19489 0.65531 0.26842
 H2208 H 0.16957 0.62568 0.29236
   
