data_POSCAR
  _audit_creation_date              2014-09-24
  _audit_creation_method            'ToBaCCo'
  _symmetry_space_group_name_H-M    'P1'
  _symmetry_Int_Tables_number       1
  _symmetry_cell_setting            triclinic
  loop_
  _symmetry_equiv_pos_as_xyz
 x,y,z
_cell_length_a 61.3291
_cell_length_b 58.3808
_cell_length_c 58.9656
_cell_angle_alpha 90.149000
_cell_angle_beta 92.236200
_cell_angle_gamma 88.501500
loop_
  _atom_site_label
  _atom_site_type_symbol
  _atom_site_fract_x
  _atom_site_fract_y
  _atom_site_fract_z
C1 C 0.17344 0.22524 0.18187
 N2 N 0.19085 0.21159 0.18843
 C3 C 0.20873 0.20995 0.17554
 N4 N 0.20914 0.22223 0.15604
 C5 C 0.19180 0.23576 0.14917
 N6 N 0.17402 0.23717 0.16215
 C7 C 0.67638 0.69484 0.70633
 N8 N 0.69124 0.67889 0.71436
 C9 C 0.71033 0.67511 0.70374
 N10 N 0.71459 0.68773 0.68511
 C11 C 0.69972 0.70355 0.67687
 N12 N 0.68070 0.70691 0.68749
 C13 C 0.29867 0.79457 0.72065
 N14 N 0.28203 0.81022 0.72259
 C15 C 0.26265 0.80761 0.71101
 N16 N 0.26008 0.78896 0.69747
 C17 C 0.27657 0.77330 0.69506
 N18 N 0.29591 0.77620 0.70665
 C19 C 0.82045 0.27221 0.21701
 N20 N 0.81227 0.25578 0.20286
 C21 C 0.79192 0.25834 0.19302
 N22 N 0.77989 0.27765 0.19707
 C23 C 0.78792 0.29439 0.21075
 N24 N 0.80811 0.29147 0.22075
 C25 C 0.79169 0.70583 0.28941
 N26 N 0.77633 0.68975 0.28572
 C27 C 0.75763 0.69024 0.29727
 N28 N 0.75422 0.70722 0.31260
 C29 C 0.76948 0.72334 0.31669
 N30 N 0.78826 0.72252 0.30512
 C31 C 0.29519 0.20059 -0.24564
 N32 N 0.29017 0.21819 -0.23139
 C33 C 0.27113 0.21839 -0.22023
 N34 N 0.25741 0.20058 -0.22292
 C35 C 0.26242 0.18263 -0.23661
 N36 N 0.28118 0.18302 -0.24804
 C37 C 0.69198 0.30033 -0.20814
 N38 N 0.69188 0.28657 -0.18967
 C39 C 0.70846 0.28666 -0.17381
 N40 N 0.72551 0.30066 -0.17655
 C41 C 0.72572 0.31499 -0.19476
 N42 N 0.70881 0.31469 -0.21047
 C43 C 0.19558 0.81030 0.29753
 N44 N 0.21182 0.82504 0.29382
 C45 C 0.23037 0.82477 0.30731
 N46 N 0.23255 0.80926 0.32454
 C47 C 0.21632 0.79454 0.32851
 N48 N 0.19794 0.79524 0.31496
 C49 C 0.48434 0.41677 0.46366
 N50 N 0.46606 0.42861 0.46957
 C51 C 0.45925 0.44777 0.45815
 N52 N 0.47081 0.45488 0.44046
 C53 C 0.48904 0.44321 0.43415
 N54 N 0.49590 0.42417 0.44598
 C55 C -0.04428 -0.08563 0.97914
 N56 N -0.03048 -0.07719 0.96389
 C57 C -0.03637 -0.05816 0.95159
 N58 N -0.05613 -0.04776 0.95453
 C59 C -0.07031 -0.05639 0.96923
 N60 N -0.06414 -0.07528 0.98147
 C61 C 1.02541 0.57540 0.98391
 N62 N 1.01118 0.57083 0.96639
 C63 C 1.01586 0.55478 0.95053
 N64 N 1.03540 0.54323 0.95210
 C65 C 1.05004 0.54765 0.96943
 N66 N 1.04486 0.56366 0.98533
 C67 C 0.53416 0.03644 0.48404
 N68 N 0.55318 0.02384 0.48605
 C69 C 0.55859 0.00855 0.46951
 N70 N 0.54503 0.00659 0.45085
 C71 C 0.52635 0.01938 0.44842
 N72 N 0.52092 0.03410 0.46520
 C73 C -0.04054 0.08358 0.52178
 N74 N -0.02519 0.07896 0.53853
 C75 C -0.02803 0.06177 0.55362
 N76 N -0.04634 0.04915 0.55167
 C77 C -0.06193 0.05373 0.53520
 N78 N -0.05886 0.07102 0.52043
 C79 C 0.44936 0.57960 0.02934
 N80 N 0.46173 0.57086 0.04703
 C81 C 0.45576 0.55156 0.05781
 N82 N 0.43721 0.54098 0.05067
 C83 C 0.42466 0.54960 0.03303
 N84 N 0.43087 0.56887 0.02248
 C85 C 0.51382 -0.04923 0.02610
 N86 N 0.53092 -0.03505 0.02397
 C87 C 0.53329 -0.01650 0.03791
 N88 N 0.51831 -0.01220 0.05395
 C89 C 0.50113 -0.02611 0.05611
 N90 N 0.49914 -0.04449 0.04221
 C91 C 1.05768 0.45206 0.53632
 N92 N 1.04586 0.45545 0.55511
 C93 C 1.04925 0.47364 0.56898
 N94 N 1.06483 0.48868 0.56400
 C95 C 1.07692 0.48569 0.54533
 N96 N 1.07327 0.46734 0.53149
 C97 C 0.39645 0.03961 0.22596
 H98 H 0.39395 0.05541 0.23523
 C99 C 0.41181 0.03840 0.20908
 H100 H 0.42082 0.05351 0.20522
 C101 C 0.38753 0.00080 0.21974
 H102 H 0.37845 -0.01398 0.22434
 C103 C 0.40279 -0.00121 0.20284
 H104 H 0.40518 -0.01760 0.19455
 N105 N 0.38445 0.02108 0.23070
 C106 C 0.33037 0.05416 0.26512
 H107 H 0.33173 0.04520 0.28117
 C108 C 0.31395 0.07087 0.26138
 H109 H 0.30311 0.07504 0.27493
 C110 C 0.34286 0.05926 0.22800
 H111 H 0.35373 0.05416 0.21481
 C112 C 0.32647 0.07586 0.22341
 H113 H 0.32502 0.08335 0.20663
 Zn114 Zn 0.36443 0.02407 0.25425
 N115 N 0.34448 0.04880 0.24860
 C116 C 0.38035 0.04851 0.29328
 N117 N 0.38102 0.02845 0.28151
 C118 C 0.39430 0.01065 0.28850
 C119 C 0.40704 0.01226 0.30851
 C120 C 0.39306 0.05098 0.31329
 C121 C 0.33609 -0.00931 0.23742
 C122 C 0.32205 -0.02770 0.23834
 C123 C 0.33076 -0.03087 0.27853
 C124 C 0.34487 -0.01263 0.27676
 N125 N 0.34734 -0.00232 0.25640
 H126 H 0.37021 0.06272 0.28704
 H127 H 0.39471 -0.00500 0.27863
 H128 H 0.41692 -0.00245 0.31407
 H129 H 0.39256 0.06719 0.32223
 H130 H 0.33794 -0.00046 0.22154
 H131 H 0.31357 -0.03317 0.22291
 H132 H 0.32854 -0.03828 0.29506
 H133 H 0.35323 -0.00623 0.29185
 C134 C 0.31162 0.08180 0.24018
 C135 C 0.41510 0.01779 0.19719
 C136 C 0.31904 -0.03863 0.25916
 C137 C 0.40658 0.03265 0.32123
 C138 C 0.07531 -0.01873 0.72658
 H139 H 0.07896 -0.03544 0.73387
 C140 C 0.06067 -0.01652 0.70786
 H141 H 0.05336 -0.03170 0.70066
 C142 C 0.08055 0.02132 0.72706
 H143 H 0.08787 0.03614 0.73486
 C144 C 0.06600 0.02432 0.70848
 H145 H 0.06239 0.04148 0.70225
 N146 N 0.08529 -0.00000 0.73544
 C147 C 0.14494 -0.02631 0.77017
 H148 H 0.14371 -0.01680 0.78586
 C149 C 0.16273 -0.04117 0.76714
 H150 H 0.17487 -0.04331 0.78084
 C151 C 0.13015 -0.03525 0.73361
 H152 H 0.11763 -0.03257 0.72043
 C153 C 0.14784 -0.05016 0.72974
 H154 H 0.14866 -0.05883 0.71354
 Zn155 Zn 0.10559 -0.00339 0.76044
 N156 N 0.12883 -0.02402 0.75377
 C157 C 0.09724 -0.03394 0.79619
 N158 N 0.09059 -0.01410 0.78571
 C159 C 0.07247 -0.00230 0.79223
 C160 C 0.06019 -0.01050 0.80984
 C161 C 0.08574 -0.04249 0.81412
 C162 C 0.13031 0.03304 0.74921
 C163 C 0.14214 0.05291 0.75191
 C164 C 0.13067 0.05557 0.79060
 C165 C 0.11868 0.03569 0.78701
 N166 N 0.11886 0.02486 0.76656
 H167 H 0.11134 -0.04346 0.79055
 H168 H 0.06731 0.01325 0.78338
 H169 H 0.04544 -0.00119 0.81419
 H170 H 0.09175 -0.05806 0.82240
 H171 H 0.13032 0.02392 0.73321
 H172 H 0.15079 0.05921 0.73763
 H173 H 0.13095 0.06361 0.80717
 H174 H 0.10977 0.02858 0.80069
 C175 C 0.16434 -0.05348 0.74675
 C176 C 0.05603 0.00524 0.69842
 C177 C 0.14286 0.06426 0.77295
 C178 C 0.06673 -0.03096 0.82105
 C179 C 0.59176 0.48230 0.20244
 H180 H 0.59101 0.46482 0.20832
 C181 C 0.57787 0.48989 0.18445
 H182 H 0.56680 0.47796 0.17636
 C183 C 0.60734 0.51890 0.20562
 H184 H 0.61863 0.53033 0.21402
 C185 C 0.59367 0.52723 0.18791
 H186 H 0.59462 0.54504 0.18306
 N187 N 0.60648 0.49668 0.21232
 C188 C 0.66059 0.45401 0.24066
 H189 H 0.66431 0.46371 0.25583
 C190 C 0.67349 0.43479 0.23575
 H191 H 0.68628 0.42944 0.24791
 C192 C 0.63974 0.44962 0.20639
 H193 H 0.62685 0.45560 0.19476
 C194 C 0.65248 0.43040 0.20063
 H195 H 0.64914 0.42191 0.18457
 Zn196 Zn 0.62644 0.48633 0.23597
 N197 N 0.64364 0.46069 0.22644
 C198 C 0.62292 0.47117 0.28109
 N199 N 0.61115 0.47809 0.26217
 C200 C 0.58893 0.47874 0.26180
 C201 C 0.57779 0.47165 0.28070
 C202 C 0.61248 0.46381 0.30023
 C203 C 0.66073 0.51477 0.22737
 C204 C 0.67585 0.53187 0.23134
 C205 C 0.66044 0.53883 0.26791
 C206 C 0.64550 0.52163 0.26317
 N207 N 0.64597 0.50999 0.24318
 H208 H 0.64047 0.47157 0.28156
 H209 H 0.57976 0.48461 0.24683
 H210 H 0.56011 0.47191 0.27998
 H211 H 0.62220 0.45844 0.31510
 H212 H 0.66063 0.50530 0.21157
 H213 H 0.68721 0.53564 0.21834
 H214 H 0.66005 0.54767 0.28405
 H215 H 0.63352 0.51764 0.27543
 C216 C 0.66946 0.42254 0.21557
 C217 C 0.57890 0.51260 0.17677
 C218 C 0.67593 0.54412 0.25189
 C219 C 0.58964 0.46380 0.30013
 C220 C 0.91385 0.50180 0.71330
 H221 H 0.91351 0.51854 0.72121
 C222 C 0.92787 0.49728 0.69569
 H223 H 0.93790 0.51090 0.68987
 C224 C 0.90061 0.46408 0.71111
 H225 H 0.89027 0.45106 0.71749
 C226 C 0.91466 0.45868 0.69367
 H227 H 0.91490 0.44146 0.68684
 N228 N 0.90021 0.48548 0.72026
 C229 C 0.85275 0.53019 0.75298
 H230 H 0.85308 0.52270 0.76975
 C231 C 0.83959 0.54959 0.74818
 H232 H 0.83016 0.55717 0.76155
 C233 C 0.86470 0.52925 0.71526
 H234 H 0.87395 0.52088 0.70227
 C235 C 0.85162 0.54850 0.70967
 H236 H 0.85111 0.55472 0.69237
 Zn237 Zn 0.88172 0.49357 0.74409
 N238 N 0.86522 0.52064 0.73670
 C239 C 0.90291 0.51891 0.77946
 N240 N 0.90015 0.49781 0.77014
 C241 C 0.91191 0.47923 0.77804
 C242 C 0.92697 0.48139 0.79624
 C243 C 0.91783 0.52186 0.79767
 C244 C 0.84893 0.46380 0.73059
 C245 C 0.83263 0.44788 0.73299
 C246 C 0.84149 0.44663 0.77325
 C247 C 0.85797 0.46227 0.76998
 N248 N 0.86135 0.47049 0.74889
 H249 H 0.89402 0.53362 0.77243
 H250 H 0.90967 0.46273 0.77002
 H251 H 0.93599 0.46633 0.80243
 H252 H 0.92011 0.53888 0.80454
 H253 H 0.85170 0.47094 0.71407
 H254 H 0.82337 0.44248 0.71801
 H255 H 0.83862 0.44095 0.79030
 H256 H 0.86757 0.46837 0.78442
 C257 C 0.83883 0.55900 0.72623
 C258 C 0.92840 0.47548 0.68552
 C259 C 0.82845 0.43925 0.75459
 C260 C 0.93015 0.50295 0.80627
 C261 C 0.21457 0.42404 -0.02523
 H262 H 0.22378 0.42345 -0.00921
 C263 C 0.19522 0.43716 -0.02725
 H264 H 0.18957 0.44622 -0.01247
 C265 C 0.21049 0.41195 -0.06348
 H266 H 0.21650 0.40206 -0.07755
 C267 C 0.19125 0.42516 -0.06638
 H268 H 0.18286 0.42547 -0.08286
 N269 N 0.22146 0.41124 -0.04299
 C270 C 0.25649 0.35142 -0.01496
 H271 H 0.27013 0.35098 -0.02606
 C272 C 0.25481 0.33446 0.00144
 H273 H 0.26707 0.32079 0.00249
 C274 C 0.22384 0.36969 -0.00332
 H275 H 0.21175 0.38337 -0.00520
 C276 C 0.22173 0.35330 0.01360
 H277 H 0.20823 0.35504 0.02481
 Zn278 Zn 0.24655 0.39187 -0.03838
 N279 N 0.24134 0.36880 -0.01681
 C280 C 0.27916 0.40451 -0.00623
 N281 N 0.27017 0.40960 -0.02713
 C282 C 0.27772 0.42710 -0.03957
 C283 C 0.29572 0.43943 -0.03157
 C284 C 0.29697 0.41649 0.00249
 C285 C 0.24022 0.35913 -0.07212
 C286 C 0.24558 0.34469 -0.09008
 C287 C 0.27790 0.36657 -0.09508
 C288 C 0.27214 0.38031 -0.07668
 N289 N 0.25360 0.37631 -0.06555
 H290 H 0.27256 0.39112 0.00383
 H291 H 0.27000 0.43118 -0.05593
 H292 H 0.30197 0.45273 -0.04209
 H293 H 0.30370 0.41214 0.01921
 H294 H 0.22578 0.35604 -0.06273
 H295 H 0.23515 0.33046 -0.09408
 H296 H 0.29265 0.37023 -0.10373
 H297 H 0.28280 0.39377 -0.07106
 C298 C 0.23751 0.33550 0.01638
 C299 C 0.18305 0.43766 -0.04798
 C300 C 0.26479 0.34812 -0.10178
 C301 C 0.30578 0.43395 -0.01035
 C302 C 0.70783 0.07567 -0.01778
 H303 H 0.71667 0.07701 -0.03323
 C304 C 0.68928 0.06232 -0.01743
 H305 H 0.68372 0.05386 -0.03287
 C306 C 0.70461 0.08503 0.02108
 H307 H 0.71091 0.09357 0.03614
 C308 C 0.68603 0.07174 0.02223
 H309 H 0.67827 0.07015 0.03830
 N310 N 0.71510 0.08672 0.00127
 C311 C 0.75608 0.14210 -0.01963
 H312 H 0.76942 0.13905 -0.00737
 C313 C 0.75680 0.16038 -0.03469
 H314 H 0.77059 0.17157 -0.03351
 C315 C 0.72183 0.13119 -0.03557
 H316 H 0.70830 0.11971 -0.03589
 C317 C 0.72204 0.14914 -0.05124
 H318 H 0.70869 0.15101 -0.06370
 Zn319 Zn 0.74149 0.10274 -0.00015
 N320 N 0.73894 0.12778 -0.02048
 C321 C 0.77223 0.08626 -0.03094
 N322 N 0.76326 0.08213 -0.01068
 C323 C 0.76990 0.06374 0.00213
 C324 C 0.78776 0.05012 -0.00411
 C325 C 0.78959 0.07263 -0.03824
 C326 C 0.73823 0.13336 0.03622
 C327 C 0.74556 0.14576 0.05522
 C328 C 0.77671 0.11974 0.05895
 C329 C 0.76905 0.10819 0.03963
 N330 N 0.75017 0.11519 0.02856
 H331 H 0.76612 0.10033 -0.04144
 H332 H 0.76203 0.06035 0.01784
 H333 H 0.79369 0.03673 0.00735
 H334 H 0.79632 0.07634 -0.05448
 H335 H 0.72351 0.13892 0.02687
 H336 H 0.73634 0.16089 0.06016
 H337 H 0.79176 0.11372 0.06740
 H338 H 0.77876 0.09419 0.03316
 C339 C 0.73984 0.16390 -0.05110
 C340 C 0.67819 0.06001 0.00282
 C341 C 0.76530 0.13925 0.06668
 C342 C 0.79825 0.05478 -0.02436
 C343 C 0.24583 0.58349 0.48201
 H344 H 0.25513 0.58447 0.46685
 C345 C 0.22800 0.56910 0.48242
 H346 H 0.22339 0.55957 0.46729
 C347 C 0.24081 0.59449 0.52018
 H348 H 0.24605 0.60409 0.53500
 C349 C 0.22296 0.58024 0.52137
 H350 H 0.21477 0.57901 0.53724
 N351 N 0.25183 0.59593 0.50068
 C352 C 0.28666 0.65612 0.47999
 H353 H 0.29868 0.65662 0.49387
 C354 C 0.28503 0.67419 0.46453
 H355 H 0.29592 0.68840 0.46667
 C356 C 0.25707 0.63771 0.46129
 H357 H 0.24600 0.62368 0.46014
 C358 C 0.25494 0.65538 0.44536
 H359 H 0.24249 0.65437 0.43189
 Zn360 Zn 0.27685 0.61453 0.50002
 N361 N 0.27299 0.63818 0.47800
 C362 C 0.32069 0.60655 0.48897
 N363 N 0.30168 0.59612 0.49315
 C364 C 0.30024 0.57292 0.49208
 C365 C 0.31812 0.55936 0.48586
 C366 C 0.33896 0.59366 0.48271
 C367 C 0.26750 0.64635 0.53373
 C368 C 0.27094 0.65901 0.55356
 C369 C 0.30300 0.63530 0.56251
 C370 C 0.29900 0.62313 0.54238
 N371 N 0.28156 0.62895 0.52843
 H372 H 0.32170 0.62491 0.49036
 H373 H 0.28520 0.56483 0.49594
 H374 H 0.31646 0.54098 0.48454
 H375 H 0.35392 0.60230 0.47945
 H376 H 0.25390 0.65073 0.52219
 H377 H 0.25994 0.67330 0.55698
 H378 H 0.31694 0.63042 0.57343
 H379 H 0.30995 0.60921 0.53779
 C380 C 0.26909 0.67392 0.44681
 C381 C 0.21630 0.56729 0.50233
 C382 C 0.28897 0.65367 0.56822
 C383 C 0.33774 0.56975 0.48083
 C384 C 0.73612 0.91057 0.53239
 H385 H 0.74527 0.90789 0.54826
 C386 C 0.71775 0.92522 0.53160
 H387 H 0.71267 0.93318 0.54719
 C388 C 0.73162 0.90273 0.49310
 H389 H 0.73730 0.89415 0.47809
 C390 C 0.71348 0.91771 0.49141
 H391 H 0.70559 0.92055 0.47490
 N392 N 0.74239 0.89928 0.51343
 C393 C 0.78120 0.84147 0.54143
 H394 H 0.79584 0.84308 0.53196
 C395 C 0.77953 0.82342 0.55671
 H396 H 0.79295 0.81109 0.55879
 C397 C 0.74555 0.85509 0.54930
 H398 H 0.73213 0.86708 0.54602
 C399 C 0.74325 0.83744 0.56485
 H400 H 0.72825 0.83658 0.57385
 Zn401 Zn 0.76761 0.87987 0.51596
 N402 N 0.76439 0.85691 0.53810
 C403 C 0.80180 0.89664 0.54487
 N404 N 0.79122 0.89866 0.52424
 C405 C 0.79654 0.91503 0.50926
 C406 C 0.81385 0.92942 0.51424
 C407 C 0.81885 0.91117 0.55086
 C408 C 0.75748 0.84880 0.48140
 C409 C 0.76079 0.83512 0.46231
 C410 C 0.79478 0.85401 0.45717
 C411 C 0.79101 0.86702 0.47661
 N412 N 0.77253 0.86431 0.48824
 H413 H 0.79681 0.88404 0.55687
 H414 H 0.78751 0.91661 0.49318
 H415 H 0.81832 0.94150 0.50145
 H416 H 0.82664 0.90957 0.56757
 H417 H 0.74313 0.84663 0.49122
 H418 H 0.74892 0.82232 0.45781
 H419 H 0.80948 0.85677 0.44808
 H420 H 0.80315 0.87890 0.48255
 C421 C 0.76032 0.82118 0.56863
 C422 C 0.70606 0.92904 0.51090
 C423 C 0.77972 0.83752 0.44990
 C424 C 0.82529 0.92776 0.53536
 C425 C 0.03348 0.24117 0.40313
 H426 H 0.04956 0.24721 0.39975
 C427 C 0.03089 0.22550 0.42061
 H428 H 0.04519 0.21920 0.43024
 C429 C -0.00454 0.24197 0.39437
 H430 H -0.01839 0.24889 0.38453
 C431 C -0.00792 0.22654 0.41185
 H432 H -0.02442 0.22171 0.41512
 N433 N 0.01598 0.24863 0.39006
 C434 C 0.04850 0.27313 0.33063
 H435 H 0.04126 0.29020 0.32943
 C436 C 0.06413 0.26606 0.31535
 H437 H 0.06908 0.27797 0.30259
 C438 C 0.05092 0.23703 0.34898
 H439 H 0.04536 0.22558 0.36175
 C440 C 0.06662 0.22925 0.33403
 H441 H 0.07309 0.21187 0.33557
 Zn442 Zn 0.02094 0.27001 0.36680
 N443 N 0.04245 0.25876 0.34722
 C444 C 0.05097 0.30442 0.38068
 N445 N 0.03015 0.29707 0.38160
 C446 C 0.01539 0.30785 0.39481
 C447 C 0.02127 0.32691 0.40771
 C448 C 0.05765 0.32332 0.39358
 C449 C -0.01537 0.25753 0.33951
 C450 C -0.03469 0.26078 0.32644
 C451 C -0.03118 0.30164 0.33103
 C452 C -0.01216 0.29758 0.34439
 N453 N -0.00487 0.27578 0.34870
 H454 H 0.06264 0.29522 0.37058
 H455 H -0.00096 0.30143 0.39546
 H456 H 0.00910 0.33533 0.41786
 H457 H 0.07446 0.32845 0.39321
 H458 H -0.00897 0.24037 0.34280
 H459 H -0.04321 0.24588 0.32022
 H460 H -0.03644 0.31917 0.32761
 H461 H -0.00312 0.31190 0.35108
 C462 C 0.07346 0.24387 0.31697
 C463 C 0.00997 0.21782 0.42509
 C464 C -0.04298 0.28310 0.32211
 C465 C 0.04276 0.33469 0.40756
 C466 C -0.01327 0.70767 0.13761
 H467 H -0.03012 0.71338 0.13868
 C468 C -0.00789 0.68930 0.12350
 H469 H -0.02088 0.68062 0.11432
 C470 C 0.02399 0.71236 0.14821
 H471 H 0.03643 0.72187 0.15733
 C472 C 0.03014 0.69437 0.13397
 H473 H 0.04734 0.69031 0.13239
 N474 N 0.00259 0.71867 0.14974
 C475 C -0.03548 0.75878 0.19757
 H476 H -0.02805 0.77513 0.19495
 C477 C -0.05233 0.75715 0.21262
 H478 H -0.05802 0.77247 0.22117
 C479 C -0.03715 0.71917 0.18908
 H480 H -0.03086 0.70434 0.18024
 C481 C -0.05402 0.71672 0.20414
 H482 H -0.06061 0.69993 0.20662
 Zn483 Zn -0.00526 0.74516 0.16640
 N484 N -0.02847 0.74007 0.18589
 C485 C -0.03487 0.77497 0.14240
 N486 N -0.01355 0.76820 0.14502
 C487 C 0.00186 0.77685 0.13170
 C488 C -0.00379 0.79383 0.11571
 C489 C -0.04129 0.79164 0.12644
 C490 C 0.02632 0.73818 0.20048
 C491 C 0.04311 0.74338 0.21608
 C492 C 0.04313 0.78176 0.20082
 C493 C 0.02635 0.77577 0.18538
 N494 N 0.01843 0.75421 0.18543
 H495 H -0.04703 0.76721 0.15246
 H496 H 0.01863 0.77075 0.13374
 H497 H 0.00888 0.80105 0.10587
 H498 H -0.05841 0.79649 0.12449
 H499 H 0.01948 0.72128 0.20033
 H500 H 0.04939 0.73018 0.22762
 H501 H 0.04900 0.79909 0.20084
 H502 H 0.01935 0.78849 0.17379
 C503 C -0.06191 0.73592 0.21607
 C504 C 0.01413 0.68263 0.12119
 C505 C 0.05167 0.76546 0.21650
 C506 C -0.02563 0.80159 0.11301
 C507 C 0.49836 0.19958 0.60654
 H508 H 0.48464 0.21030 0.60069
 C509 C 0.50430 0.18009 0.59419
 H510 H 0.49505 0.17612 0.57874
 C511 C 0.52788 0.19283 0.63300
 H512 H 0.53716 0.19804 0.64801
 C513 C 0.53424 0.17306 0.62132
 H514 H 0.54823 0.16304 0.62776
 N515 N 0.51034 0.20574 0.62534
 C516 C 0.47228 0.25096 0.66881
 H517 H 0.48141 0.26647 0.66747
 C518 C 0.45417 0.25071 0.68236
 H519 H 0.44923 0.26643 0.69067
 C520 C 0.46770 0.21202 0.65889
 H521 H 0.47322 0.19694 0.64986
 C522 C 0.44980 0.21081 0.67282
 H523 H 0.44194 0.19456 0.67445
 Zn524 Zn 0.50363 0.23408 0.63940
 N525 N 0.47843 0.23196 0.65703
 C526 C 0.47973 0.26914 0.61531
 N527 N 0.49860 0.25635 0.61604
 C528 C 0.51314 0.25792 0.59927
 C529 C 0.50895 0.27286 0.58097
 C530 C 0.47508 0.28447 0.59763
 C531 C 0.52519 0.23681 0.68169
 C532 C 0.54229 0.24037 0.69739
 C533 C 0.56370 0.25444 0.66712
 C534 C 0.54605 0.25064 0.65190
 N535 N 0.52728 0.24190 0.65940
 H536 H 0.46791 0.26731 0.62815
 H537 H 0.52766 0.24700 0.59967
 H538 H 0.52044 0.27338 0.56752
 H539 H 0.46013 0.29471 0.59785
 H540 H 0.51040 0.22937 0.68733
 H541 H 0.54018 0.23618 0.71503
 H542 H 0.57872 0.26088 0.66083
 H543 H 0.54755 0.25426 0.63409
 C544 C 0.44261 0.23042 0.68469
 C545 C 0.52264 0.16662 0.60137
 C546 C 0.56199 0.24896 0.69015
 C547 C 0.48958 0.28630 0.57991
 C548 C 0.50355 0.72920 0.89935
 H549 H 0.52037 0.73433 0.90084
 C550 C 0.49615 0.71222 0.91363
 H551 H 0.50759 0.70415 0.92575
 C552 C 0.46864 0.73291 0.88095
 H553 H 0.45786 0.74120 0.86839
 C554 C 0.46045 0.71639 0.89513
 H555 H 0.44337 0.71227 0.89326
 N556 N 0.49003 0.73846 0.88279
 C557 C 0.53611 0.76015 0.83308
 H558 H 0.52995 0.77745 0.83002
 C559 C 0.55395 0.75172 0.82137
 H560 H 0.56168 0.76278 0.80954
 C561 C 0.53328 0.72470 0.85207
 H562 H 0.52476 0.71392 0.86342
 C563 C 0.55114 0.71558 0.84077
 H564 H 0.55629 0.69793 0.84377
 Zn565 Zn 0.50124 0.75937 0.86190
 N566 N 0.52628 0.74671 0.84822
 C567 C 0.52903 0.79330 0.88107
 N568 N 0.50803 0.78660 0.87795
 C569 C 0.49131 0.79846 0.88738
 C570 C 0.49532 0.81811 0.90024
 C571 C 0.53381 0.81273 0.89407
 C572 C 0.47410 0.74612 0.82593
 C573 C 0.45796 0.74792 0.80867
 C574 C 0.45534 0.78866 0.81568
 C575 C 0.47150 0.78604 0.83296
 N576 N 0.48018 0.76490 0.83803
 H577 H 0.54217 0.78327 0.87400
 H578 H 0.47480 0.79256 0.88494
 H579 H 0.48164 0.82746 0.90720
 H580 H 0.55068 0.81737 0.89685
 H581 H 0.48144 0.72955 0.83017
 H582 H 0.45280 0.73252 0.79997
 H583 H 0.44855 0.80559 0.81193
 H584 H 0.47699 0.80088 0.84233
 C585 C 0.56164 0.72912 0.82510
 C586 C 0.47440 0.70524 0.91132
 C587 C 0.44814 0.76937 0.80346
 C588 C 0.51684 0.82539 0.90398
 C589 C 0.15570 0.22021 0.21913
 C590 C 0.13851 0.22479 0.23367
 C591 C 0.11971 0.23716 0.22548
 C592 C 0.11826 0.24443 0.20284
 C593 C 0.13554 0.24008 0.18857
 C594 C 0.15453 0.22819 0.19660
 C595 C 0.10284 0.24249 0.24013
 C596 C 0.10468 0.23593 0.26300
 C597 C 0.12334 0.22331 0.27116
 C598 C 0.14008 0.21769 0.25641
 C599 C 0.12511 0.21687 0.29406
 C600 C 0.10875 0.22326 0.30885
 C601 C 0.09030 0.23615 0.30101
 C602 C 0.08828 0.24216 0.27793
 H603 H 0.17024 0.21108 0.22561
 H604 H 0.10394 0.25386 0.19626
 H605 H 0.13409 0.24630 0.17128
 H606 H 0.08851 0.25215 0.23386
 H607 H 0.15449 0.20819 0.26273
 H608 H 0.13929 0.20721 0.30062
 H609 H 0.11080 0.21859 0.32658
 H610 H 0.07396 0.25176 0.27159
 C611 C 0.65404 0.69340 0.74110
 C612 C 0.63555 0.70025 0.75300
 C613 C 0.61868 0.71340 0.74183
 C614 C 0.62039 0.71917 0.71896
 C615 C 0.63893 0.71261 0.70737
 C616 C 0.65605 0.69992 0.71834
 C617 C 0.60056 0.72099 0.75379
 C618 C 0.59919 0.71592 0.77688
 C619 C 0.61588 0.70256 0.78806
 C620 C 0.63392 0.69469 0.77602
 C621 C 0.61436 0.69756 0.81119
 C622 C 0.59665 0.70602 0.82320
 C623 C 0.58016 0.71962 0.81230
 C624 C 0.58148 0.72429 0.78904
 H625 H 0.66716 0.68371 0.74979
 H626 H 0.60757 0.72916 0.71013
 H627 H 0.63995 0.71772 0.68981
 H628 H 0.58773 0.73122 0.74521
 H629 H 0.64682 0.68461 0.78463
 H630 H 0.62698 0.68734 0.82005
 H631 H 0.59605 0.70228 0.84114
 H632 H 0.56865 0.73442 0.78037
 C633 C 0.33783 0.78340 0.73017
 C634 C 0.35676 0.78477 0.74428
 C635 C 0.35702 0.79985 0.76309
 C636 C 0.33864 0.81380 0.76706
 C637 C 0.31994 0.81244 0.75289
 C638 C 0.31918 0.79701 0.73453
 C639 C 0.37550 0.80049 0.77785
 C640 C 0.39376 0.78623 0.77407
 C641 C 0.39377 0.77164 0.75490
 C642 C 0.37529 0.77101 0.74011
 C643 C 0.41213 0.75758 0.75107
 C644 C 0.43004 0.75742 0.76645
 C645 C 0.42996 0.77125 0.78603
 C646 C 0.41182 0.78594 0.78948
 H647 H 0.33757 0.77156 0.71597
 H648 H 0.33859 0.82554 0.78132
 H649 H 0.30586 0.82316 0.75670
 H650 H 0.37553 0.81181 0.79247
 H651 H 0.37520 0.75955 0.72559
 H652 H 0.41252 0.74646 0.73633
 H653 H 0.44394 0.74629 0.76307
 H654 H 0.41137 0.79653 0.80458
 C655 C -0.15135 0.28531 0.24427
 C656 C -0.13104 0.28217 0.25577
 C657 C -0.11748 0.26310 0.25055
 C658 C -0.12463 0.24734 0.23408
 C659 C -0.14511 0.25029 0.22302
 C660 C -0.15878 0.26932 0.22790
 C661 C -0.09714 0.25996 0.26207
 C662 C -0.09044 0.27537 0.27913
 C663 C -0.10420 0.29424 0.28455
 C664 C -0.12427 0.29766 0.27268
 C665 C -0.09778 0.30925 0.30198
 C666 C -0.07799 0.30557 0.31408
 C667 C -0.06395 0.28702 0.30880
 C668 C -0.07033 0.27206 0.29108
 H669 H -0.16152 0.30006 0.24852
 H670 H -0.11448 0.23258 0.22990
 H671 H -0.15011 0.23763 0.21055
 H672 H -0.08670 0.24536 0.25799
 H673 H -0.13476 0.31221 0.27684
 H674 H -0.10822 0.32368 0.30648
 H675 H -0.07392 0.31711 0.32791
 H676 H -0.05966 0.25786 0.28646
 C677 C -0.17055 0.71905 0.28173
 C678 C -0.15208 0.71889 0.26832
 C679 C -0.15158 0.70502 0.24863
 C680 C -0.16930 0.69122 0.24294
 C681 C -0.18749 0.69132 0.25641
 C682 C -0.18845 0.70535 0.27582
 C683 C -0.13348 0.70527 0.23484
 C684 C -0.11576 0.71915 0.24048
 C685 C -0.11602 0.73268 0.26040
 C686 C -0.13417 0.73249 0.27419
 C687 C -0.09818 0.74636 0.26607
 C688 C -0.08045 0.74700 0.25194
 C689 C -0.08021 0.73406 0.23177
 C690 C -0.09791 0.71995 0.22632
 H691 H -0.17098 0.72983 0.29671
 H692 H -0.16916 0.68043 0.22796
 H693 H -0.20100 0.68061 0.25137
 H694 H -0.13325 0.69478 0.21962
 H695 H -0.13444 0.74304 0.28935
 H696 H -0.09799 0.75669 0.28137
 H697 H -0.06687 0.75767 0.25683
 H698 H -0.09811 0.71006 0.21073
 C699 C 0.33086 0.21641 0.74622
 C700 C 0.34985 0.21595 0.73355
 C701 C 0.35198 0.19998 0.71565
 C702 C 0.33560 0.18418 0.71128
 C703 C 0.31718 0.18418 0.72439
 C704 C 0.31431 0.20046 0.74183
 C705 C 0.37050 0.19993 0.70243
 C706 C 0.38734 0.21515 0.70732
 C707 C 0.38569 0.23048 0.72580
 C708 C 0.36683 0.23103 0.73860
 C709 C 0.40300 0.24494 0.73121
 C710 C 0.42162 0.24445 0.71828
 C711 C 0.42318 0.22992 0.69924
 C712 C 0.40582 0.21522 0.69400
 H713 H 0.32924 0.22889 0.75974
 H714 H 0.33707 0.17169 0.69775
 H715 H 0.30493 0.17161 0.72037
 H716 H 0.37189 0.18789 0.68848
 H717 H 0.36546 0.24305 0.75257
 H718 H 0.40221 0.25654 0.74554
 H719 H 0.43485 0.25548 0.72338
 H720 H 0.40640 0.20407 0.67933
 C721 C 0.66091 0.27956 0.77361
 C722 C 0.64444 0.27726 0.75672
 C723 C 0.64100 0.29446 0.74005
 C724 C 0.65441 0.31361 0.74051
 C725 C 0.67104 0.31564 0.75732
 C726 C 0.67436 0.29869 0.77408
 C727 C 0.62426 0.29218 0.72328
 C728 C 0.61108 0.27283 0.72297
 C729 C 0.61488 0.25554 0.73955
 C730 C 0.63146 0.25789 0.75629
 C731 C 0.60194 0.23615 0.73924
 C732 C 0.58510 0.23399 0.72292
 C733 C 0.58074 0.25120 0.70661
 C734 C 0.59403 0.27051 0.70654
 H735 H 0.66340 0.26619 0.78624
 H736 H 0.65208 0.32696 0.72785
 H737 H 0.68120 0.33053 0.75727
 H738 H 0.62149 0.30543 0.71056
 H739 H 0.63423 0.24465 0.76904
 H740 H 0.60479 0.22268 0.75170
 H741 H 0.57543 0.21873 0.72304
 H742 H 0.59077 0.28391 0.69409
 C743 C 0.15751 0.79784 0.28880
 C744 C 0.13936 0.79562 0.27386
 C745 C 0.13937 0.80560 0.25205
 C746 C 0.15733 0.81826 0.24586
 C747 C 0.17539 0.82041 0.26089
 C748 C 0.17581 0.80987 0.28232
 C749 C 0.12164 0.80239 0.23669
 C750 C 0.10397 0.78924 0.24289
 C751 C 0.10380 0.77979 0.26495
 C752 C 0.12143 0.78311 0.28030
 C753 C 0.08614 0.76680 0.27120
 C754 C 0.06905 0.76263 0.25558
 C755 C 0.06928 0.77130 0.23337
 C756 C 0.08669 0.78496 0.22726
 H757 H 0.15749 0.78983 0.30537
 H758 H 0.15759 0.82614 0.22926
 H759 H 0.18926 0.82981 0.25547
 H760 H 0.12176 0.80976 0.21984
 H761 H 0.12140 0.77557 0.29710
 H762 H 0.08566 0.75963 0.28811
 H763 H 0.05561 0.75252 0.26091
 H764 H 0.08714 0.79163 0.21015
 C765 C 0.22527 0.17728 0.19837
 C766 C 0.24300 0.16255 0.20441
 C767 C 0.26352 0.16585 0.19493
 C768 C 0.26591 0.18373 0.17949
 C769 C 0.24810 0.19805 0.17327
 C770 C 0.22763 0.19499 0.18261
 C771 C 0.28123 0.15106 0.20079
 C772 C 0.27858 0.13269 0.21564
 C773 C 0.25802 0.12929 0.22497
 C774 C 0.24043 0.14435 0.21947
 C775 C 0.25533 0.11066 0.23942
 C776 C 0.27273 0.09537 0.24439
 C777 C 0.29332 0.09855 0.23529
 C778 C 0.29610 0.11747 0.22104
 H779 H 0.20954 0.17462 0.20556
 H780 H 0.28150 0.18649 0.17205
 H781 H 0.25040 0.21163 0.16118
 H782 H 0.29695 0.15362 0.19352
 H783 H 0.22467 0.14171 0.22665
 H784 H 0.23965 0.10769 0.24660
 H785 H 0.26988 0.08075 0.25503
 H786 H 0.31190 0.12040 0.21412
 C787 C 0.74699 0.65491 0.70320
 C788 C 0.76146 0.63704 0.71025
 C789 C 0.75488 0.62090 0.72629
 C790 C 0.73415 0.62318 0.73535
 C791 C 0.71990 0.64105 0.72834
 C792 C 0.72602 0.65695 0.71202
 C793 C 0.76901 0.60261 0.73284
 C794 C 0.78970 0.60029 0.72362
 C795 C 0.79646 0.61667 0.70793
 C796 C 0.78230 0.63494 0.70133
 C797 C 0.81722 0.61440 0.69894
 C798 C 0.83105 0.59590 0.70516
 C799 C 0.82439 0.57920 0.72041
 C800 C 0.80365 0.58167 0.72969
 H801 H 0.75204 0.66710 0.69073
 H802 H 0.72888 0.61102 0.74773
 H803 H 0.70389 0.64215 0.73544
 H804 H 0.76385 0.59012 0.74498
 H805 H 0.78742 0.64737 0.68912
 H806 H 0.82274 0.62689 0.68702
 H807 H 0.84706 0.59472 0.69806
 H808 H 0.79811 0.56882 0.74121
 C809 C 0.74241 0.34624 0.78500
 C810 C 0.75965 0.36123 0.78241
 C811 C 0.77832 0.35960 0.79717
 C812 C 0.77922 0.34330 0.81460
 C813 C 0.76179 0.32874 0.81742
 C814 C 0.74319 0.32984 0.80258
 C815 C 0.79572 0.37438 0.79435
 C816 C 0.79445 0.39111 0.77725
 C817 C 0.77552 0.39304 0.76285
 C818 C 0.75835 0.37797 0.76536
 C819 C 0.77398 0.41013 0.74622
 C820 C 0.79104 0.42517 0.74378
 C821 C 0.81023 0.42322 0.75762
 C822 C 0.81175 0.40603 0.77439
 H823 H 0.72825 0.34768 0.77344
 H824 H 0.79336 0.34188 0.82616
 H825 H 0.76310 0.31642 0.83113
 H826 H 0.81013 0.37299 0.80558
 H827 H 0.74392 0.37939 0.75416
 H828 H 0.75948 0.41202 0.73522
 H829 H 0.78899 0.43855 0.73115
 H830 H 0.82644 0.40404 0.78508
 C831 C 0.24389 -0.14231 0.28691
 C832 C 0.25986 -0.12595 0.28384
 C833 C 0.27943 -0.12687 0.29730
 C834 C 0.28267 -0.14414 0.31363
 C835 C 0.26655 -0.16016 0.31688
 C836 C 0.24688 -0.15946 0.30365
 C837 C 0.29531 -0.11035 0.29442
 C838 C 0.29163 -0.09262 0.27858
 C839 C 0.27198 -0.09166 0.26523
 C840 C 0.25633 -0.10844 0.26778
 C841 C 0.26815 -0.07371 0.24975
 C842 C 0.28348 -0.05665 0.24771
 C843 C 0.30313 -0.05734 0.26088
 C844 C 0.30714 -0.07562 0.27615
 H845 H 0.22894 -0.14127 0.27649
 H846 H 0.29758 -0.14510 0.32411
 H847 H 0.26958 -0.17308 0.32986
 H848 H 0.31033 -0.11106 0.30477
 H849 H 0.24125 -0.10765 0.25752
 H850 H 0.25312 -0.07264 0.23948
 H851 H 0.27967 -0.04262 0.23615
 H852 H 0.32231 -0.07663 0.28620
 C853 C 0.24858 -0.15548 0.72502
 C854 C 0.23151 -0.13911 0.72653
 C855 C 0.21081 -0.14352 0.71631
 C856 C 0.20764 -0.16397 0.70436
 C857 C 0.22478 -0.17998 0.70250
 C858 C 0.24547 -0.17609 0.71291
 C859 C 0.19361 -0.12741 0.71815
 C860 C 0.19692 -0.10674 0.72980
 C861 C 0.21775 -0.10208 0.73958
 C862 C 0.23488 -0.11834 0.73801
 C863 C 0.22109 -0.08123 0.75083
 C864 C 0.20388 -0.06528 0.75270
 C865 C 0.18291 -0.06993 0.74355
 C866 C 0.17965 -0.09072 0.73194
 H867 H 0.26435 -0.15192 0.73302
 H868 H 0.19190 -0.16758 0.69634
 H869 H 0.22164 -0.19555 0.69305
 H870 H 0.17767 -0.13093 0.71048
 H871 H 0.25080 -0.11482 0.74569
 H872 H 0.23700 -0.07726 0.75823
 H873 H 0.20704 -0.04924 0.76132
 H874 H 0.16357 -0.09473 0.72503
 C875 C 0.75321 0.31787 0.20591
 C876 C 0.74111 0.33836 0.20861
 C877 C 0.75097 0.35722 0.21960
 C878 C 0.77265 0.35518 0.22791
 C879 C 0.78453 0.33468 0.22530
 C880 C 0.77502 0.31585 0.21419
 C881 C 0.73898 0.37777 0.22221
 C882 C 0.71713 0.37958 0.21430
 C883 C 0.70721 0.36068 0.20347
 C884 C 0.71930 0.34024 0.20054
 C885 C 0.68525 0.36248 0.19600
 C886 C 0.67310 0.38266 0.19961
 C887 C 0.68274 0.40156 0.21049
 C888 C 0.70496 0.39993 0.21742
 H889 H 0.74559 0.30350 0.19739
 H890 H 0.78043 0.36946 0.23643
 H891 H 0.80129 0.33368 0.23180
 H892 H 0.74656 0.39224 0.23063
 H893 H 0.71170 0.32574 0.19219
 H894 H 0.67735 0.34813 0.18774
 H895 H 0.65598 0.38321 0.19437
 H896 H 0.71282 0.41445 0.22538
 C897 C 0.74711 0.65189 0.28198
 C898 C 0.73194 0.63456 0.27848
 C899 C 0.71052 0.63763 0.28620
 C900 C 0.70475 0.65793 0.29751
 C901 C 0.72005 0.67502 0.30116
 C902 C 0.74134 0.67222 0.29337
 C903 C 0.69528 0.62036 0.28253
 C904 C 0.70127 0.59998 0.27142
 C905 C 0.72279 0.59686 0.26397
 C906 C 0.73795 0.61418 0.26747
 C907 C 0.72881 0.57644 0.25308
 C908 C 0.71364 0.55929 0.24942
 C909 C 0.69209 0.56225 0.25645
 C910 C 0.68607 0.58268 0.26756
 H911 H 0.76352 0.64939 0.27605
 H912 H 0.68842 0.66056 0.30358
 H913 H 0.71515 0.69051 0.30995
 H914 H 0.67881 0.62275 0.28834
 H915 H 0.75442 0.61179 0.26166
 H916 H 0.74528 0.57370 0.24741
 H917 H 0.71886 0.54358 0.24121
 H918 H 0.66946 0.58532 0.27285
 C919 C 0.22908 0.16288 0.77299
 C920 C 0.21589 0.14356 0.77130
 C921 C 0.22244 0.12470 0.75788
 C922 C 0.24179 0.12551 0.74616
 C923 C 0.25473 0.14475 0.74778
 C924 C 0.24873 0.16367 0.76132
 C925 C 0.20957 0.10528 0.75630
 C926 C 0.18999 0.10453 0.76769
 C927 C 0.18319 0.12339 0.78096
 C928 C 0.19626 0.14278 0.78281
 C929 C 0.16337 0.12251 0.79202
 C930 C 0.15029 0.10327 0.78966
 C931 C 0.15689 0.08449 0.77635
 C932 C 0.17701 0.08521 0.76576
 H933 H 0.22399 0.17720 0.78345
 H934 H 0.24697 0.11121 0.73574
 H935 H 0.26963 0.14457 0.73849
 H936 H 0.21469 0.09081 0.74602
 H937 H 0.19111 0.15725 0.79305
 H938 H 0.15784 0.13682 0.80224
 H939 H 0.13481 0.10330 0.79788
 H940 H 0.18267 0.07066 0.75593
 C941 C 0.21273 0.25444 0.11905
 C942 C 0.21364 0.26827 0.09971
 C943 C 0.19408 0.27678 0.08894
 C944 C 0.17397 0.27140 0.09780
 C945 C 0.17322 0.25800 0.11734
 C946 C 0.19257 0.24942 0.12814
 C947 C 0.19497 0.29081 0.06974
 C948 C 0.21519 0.29694 0.06155
 C949 C 0.23472 0.28859 0.07247
 C950 C 0.23383 0.27409 0.09130
 C951 C 0.25487 0.29520 0.06463
 C952 C 0.25571 0.31026 0.04637
 C953 C 0.23642 0.31872 0.03526
 C954 C 0.21617 0.31167 0.04286
 H955 H 0.22778 0.24811 0.12735
 H956 H 0.15882 0.27780 0.08979
 H957 H 0.15748 0.25430 0.12396
 H958 H 0.17997 0.29733 0.06148
 H959 H 0.24884 0.26770 0.09967
 H960 H 0.26999 0.28909 0.07291
 H961 H 0.27154 0.31568 0.04132
 H962 H 0.20114 0.31769 0.03434
 C963 C 0.72527 0.72517 0.65325
 C964 C 0.72878 0.74090 0.63583
 C965 C 0.71103 0.74841 0.62144
 C966 C 0.69017 0.74006 0.62459
 C967 C 0.68671 0.72503 0.64235
 C968 C 0.70413 0.71763 0.65692
 C969 C 0.71421 0.76469 0.60457
 C970 C 0.73476 0.77418 0.60234
 C971 C 0.75255 0.76674 0.61666
 C972 C 0.74953 0.74989 0.63312
 C973 C 0.77295 0.77668 0.61459
 C974 C 0.77556 0.79419 0.59886
 C975 C 0.75787 0.80193 0.58473
 C976 C 0.73760 0.79147 0.58636
 H977 H 0.73873 0.71972 0.66462
 H978 H 0.67640 0.74564 0.61372
 H979 H 0.67031 0.71933 0.64486
 H980 H 0.70054 0.77050 0.59364
 H981 H 0.76315 0.74428 0.64421
 H982 H 0.78678 0.77124 0.62544
 H983 H 0.79131 0.80204 0.59814
 H984 H 0.72393 0.79687 0.57527
 C985 C 0.78309 0.75142 0.34586
 C986 C 0.77919 0.76761 0.36302
 C987 C 0.75749 0.77445 0.36757
 C988 C 0.74009 0.76487 0.35507
 C989 C 0.74409 0.74835 0.33848
 C990 C 0.76556 0.74146 0.33373
 C991 C 0.75349 0.79041 0.38484
 C992 C 0.77086 0.79913 0.39810
 C993 C 0.79253 0.79210 0.39375
 C994 C 0.79659 0.77663 0.37604
 C995 C 0.80977 0.80034 0.40747
 C996 C 0.80560 0.81512 0.42555
 C997 C 0.78411 0.82235 0.43009
 C998 C 0.76684 0.81442 0.41598
 H999 H 0.79970 0.74603 0.34247
 H1000 H 0.72337 0.76987 0.35837
 H1001 H 0.73033 0.74099 0.32927
 H1002 H 0.73684 0.79565 0.38828
 H1003 H 0.81323 0.77126 0.37272
 H1004 H 0.82647 0.79500 0.40450
 H1005 H 0.81926 0.82043 0.43629
 H1006 H 0.75021 0.82004 0.41890
 C1007 C 0.28097 0.25118 -0.19442
 C1008 C 0.27485 0.26902 -0.17969
 C1009 C 0.25246 0.27408 -0.17667
 C1010 C 0.23661 0.26115 -0.18818
 C1011 C 0.24281 0.24310 -0.20229
 C1012 C 0.26498 0.23792 -0.20555
 C1013 C 0.24624 0.29168 -0.16185
 C1014 C 0.26208 0.30381 -0.14936
 C1015 C 0.28445 0.29862 -0.15213
 C1016 C 0.29072 0.28150 -0.16754
 C1017 C 0.30017 0.31030 -0.13906
 C1018 C 0.29381 0.32655 -0.12299
 C1019 C 0.27157 0.33186 -0.11996
 C1020 C 0.25583 0.32063 -0.13367
 H1021 H 0.29811 0.24718 -0.19669
 H1022 H 0.21939 0.26477 -0.18602
 H1023 H 0.23019 0.23325 -0.21080
 H1024 H 0.22905 0.29551 -0.15958
 H1025 H 0.30790 0.27753 -0.16965
 H1026 H 0.31741 0.30646 -0.14083
 H1027 H 0.30639 0.33444 -0.11250
 H1028 H 0.23864 0.32474 -0.13201
 C1029 C 0.72704 0.26132 -0.14432
 C1030 C 0.72602 0.24509 -0.12686
 C1031 C 0.70553 0.23938 -0.11850
 C1032 C 0.68645 0.24988 -0.12780
 C1033 C 0.68756 0.26547 -0.14558
 C1034 C 0.70779 0.27126 -0.15405
 C1035 C 0.70437 0.22292 -0.10135
 C1036 C 0.72338 0.21155 -0.09286
 C1037 C 0.74384 0.21706 -0.10135
 C1038 C 0.74507 0.23399 -0.11807
 C1039 C 0.76271 0.20527 -0.09322
 C1040 C 0.76134 0.18805 -0.07700
 C1041 C 0.74111 0.18245 -0.06826
 C1042 C 0.72218 0.19448 -0.07625
 H1043 H 0.74269 0.26551 -0.15095
 H1044 H 0.67062 0.24570 -0.12164
 H1045 H 0.67252 0.27301 -0.15278
 H1046 H 0.68865 0.21859 -0.09497
 H1047 H 0.76078 0.23818 -0.12457
 H1048 H 0.77851 0.20913 -0.09965
 H1049 H 0.77617 0.17882 -0.07160
 H1050 H 0.70649 0.19064 -0.06954
 C1051 C 0.23919 0.77087 0.35638
 C1052 C 0.24116 0.75374 0.37309
 C1053 C 0.22219 0.74355 0.38096
 C1054 C 0.20163 0.75063 0.37204
 C1055 C 0.19984 0.76736 0.35518
 C1056 C 0.21854 0.77758 0.34711
 C1057 C 0.22405 0.72624 0.39738
 C1058 C 0.24466 0.71864 0.40581
 C1059 C 0.26365 0.72874 0.39794
 C1060 C 0.26179 0.74633 0.38175
 C1061 C 0.28421 0.72089 0.40626
 C1062 C 0.28596 0.70311 0.42211
 C1063 C 0.26717 0.69292 0.43006
 C1064 C 0.24654 0.70094 0.42186
 H1065 H 0.25374 0.77851 0.35019
 H1066 H 0.18694 0.74302 0.37788
 H1067 H 0.18372 0.77229 0.34844
 H1068 H 0.20947 0.71845 0.40337
 H1069 H 0.27637 0.75404 0.37568
 H1070 H 0.29896 0.72834 0.40037
 H1071 H 0.30207 0.69709 0.42789
 H1072 H 0.23190 0.69353 0.42808
 C1073 C 0.29111 0.74219 0.66981
 C1074 C 0.28761 0.72488 0.65355
 C1075 C 0.26605 0.71846 0.64756
 C1076 C 0.24842 0.72920 0.65804
 C1077 C 0.25200 0.74670 0.67378
 C1078 C 0.27330 0.75355 0.67964
 C1079 C 0.26236 0.70188 0.63072
 C1080 C 0.27988 0.69208 0.61926
 C1081 C 0.30147 0.69828 0.62531
 C1082 C 0.30523 0.71443 0.64262
 C1083 C 0.31888 0.68866 0.61347
 C1084 C 0.31488 0.67369 0.59531
 C1085 C 0.29341 0.66785 0.58881
 C1086 C 0.27605 0.67673 0.60132
 H1087 H 0.30759 0.74743 0.67411
 H1088 H 0.23181 0.72445 0.65369
 H1089 H 0.23801 0.75502 0.68125
 H1090 H 0.24579 0.69716 0.62604
 H1091 H 0.32178 0.71935 0.64712
 H1092 H 0.33554 0.69320 0.61784
 H1093 H 0.32857 0.66732 0.58588
 H1094 H 0.25945 0.67204 0.59680
 C1095 C 0.79669 0.22623 0.16521
 C1096 C 0.78790 0.21048 0.14953
 C1097 C 0.76500 0.20850 0.14691
 C1098 C 0.75129 0.22235 0.15992
 C1099 C 0.76014 0.23838 0.17503
 C1100 C 0.78286 0.24053 0.17777
 C1101 C 0.75614 0.19310 0.13097
 C1102 C 0.76986 0.18015 0.11707
 C1103 C 0.79274 0.18228 0.11956
 C1104 C 0.80163 0.19716 0.13597
 C1105 C 0.80635 0.16986 0.10521
 C1106 C 0.79742 0.15581 0.08826
 C1107 C 0.77466 0.15346 0.08555
 C1108 C 0.76101 0.16554 0.10035
 H1109 H 0.81424 0.22792 0.16705
 H1110 H 0.73371 0.22110 0.15812
 H1111 H 0.74915 0.24914 0.18461
 H1112 H 0.73857 0.19163 0.12898
 H1113 H 0.81919 0.19879 0.13782
 H1114 H 0.82392 0.17142 0.10674
 H1115 H 0.80844 0.14728 0.07689
 H1116 H 0.74347 0.16375 0.09879
 C1117 C 0.47574 0.38254 0.48626
 C1118 C 0.48200 0.36449 0.50091
 C1119 C 0.50435 0.36024 0.50655
 C1120 C 0.52011 0.37346 0.49642
 C1121 C 0.51370 0.39128 0.48154
 C1122 C 0.49147 0.39631 0.47686
 C1123 C 0.51046 0.34323 0.52258
 C1124 C 0.49447 0.33039 0.53285
 C1125 C 0.47222 0.33403 0.52625
 C1126 C 0.46614 0.35105 0.51039
 C1127 C 0.45629 0.32091 0.53597
 C1128 C 0.46215 0.30491 0.55274
 C1129 C 0.48404 0.30187 0.56044
 C1130 C 0.50023 0.31436 0.54997
 H1131 H 0.45855 0.38616 0.48247
 H1132 H 0.53733 0.37033 0.50036
 H1133 H 0.52608 0.40172 0.47443
 H1134 H 0.52756 0.34030 0.52735
 H1135 H 0.44902 0.35414 0.50577
 H1136 H 0.43922 0.32322 0.53080
 H1137 H 0.44939 0.29500 0.55983
 H1138 H 0.51718 0.31224 0.55565
 C1139 C -0.04808 0.89225 0.01478
 C1140 C -0.04157 0.87468 0.02987
 C1141 C -0.02448 0.85923 0.02432
 C1142 C -0.01399 0.86192 0.00377
 C1143 C -0.02034 0.87982 -0.01104
 C1144 C -0.03750 0.89507 -0.00571
 C1145 C -0.01808 0.84154 0.03949
 C1146 C -0.02836 0.83944 0.06027
 C1147 C -0.04520 0.85523 0.06584
 C1148 C -0.05181 0.87259 0.05056
 C1149 C -0.05516 0.85350 0.08670
 C1150 C -0.04860 0.83625 0.10196
 C1151 C -0.03214 0.82011 0.09661
 C1152 C -0.02204 0.82189 0.07563
 H1153 H -0.06115 0.90406 0.01930
 H1154 H -0.00079 0.85030 -0.00076
 H1155 H -0.01192 0.88166 -0.02672
 H1156 H -0.00504 0.82958 0.03522
 H1157 H -0.06481 0.88460 0.05485
 H1158 H -0.06794 0.86561 0.09130
 H1159 H -0.05631 0.83573 0.11815
 H1160 H -0.00947 0.80951 0.07110
 C1161 C 0.03294 0.59539 0.02006
 C1162 C 0.02687 0.61184 0.03629
 C1163 C 0.00786 0.62569 0.03227
 C1164 C -0.00503 0.62257 0.01248
 C1165 C 0.00075 0.60587 -0.00325
 C1166 C 0.01985 0.59211 0.00014
 C1167 C 0.00188 0.64237 0.04813
 C1168 C 0.01435 0.64509 0.06831
 C1169 C 0.03306 0.63092 0.07272
 C1170 C 0.03934 0.61452 0.05658
 C1171 C 0.04511 0.63341 0.09324
 C1172 C 0.03878 0.64987 0.10913
 C1173 C 0.02042 0.66441 0.10473
 C1174 C 0.00833 0.66182 0.08415
 H1175 H 0.04760 0.58493 0.02322
 H1176 H -0.01970 0.63298 0.00921
 H1177 H -0.00979 0.60403 -0.01829
 H1178 H -0.01261 0.65310 0.04486
 H1179 H 0.05381 0.60377 0.05988
 H1180 H 0.05939 0.62257 0.09703
 H1181 H 0.04824 0.65110 0.12495
 H1182 H -0.00559 0.67310 0.08016
 C1183 C 0.54288 0.06387 0.51596
 C1184 C 0.53605 0.08054 0.53167
 C1185 C 0.51349 0.08529 0.53395
 C1186 C 0.49818 0.07335 0.52062
 C1187 C 0.50508 0.05730 0.50472
 C1188 C 0.52743 0.05250 0.50208
 C1189 C 0.50654 0.10227 0.54909
 C1190 C 0.52182 0.11510 0.56159
 C1191 C 0.54437 0.11044 0.55938
 C1192 C 0.55136 0.09300 0.54464
 C1193 C 0.55956 0.12366 0.57161
 C1194 C 0.55249 0.14164 0.58546
 C1195 C 0.53007 0.14661 0.58763
 C1196 C 0.51485 0.13291 0.57585
 H1197 H 0.56015 0.06041 0.51392
 H1198 H 0.48085 0.07677 0.52217
 H1199 H 0.49285 0.04864 0.49437
 H1200 H 0.48922 0.10590 0.55070
 H1201 H 0.56867 0.08952 0.54288
 H1202 H 0.57692 0.12042 0.57008
 H1203 H 0.56466 0.15204 0.59398
 H1204 H 0.49752 0.13620 0.57760
 C1205 C -0.02095 0.11786 0.50770
 C1206 C -0.01795 0.13456 0.49103
 C1207 C -0.03124 0.13467 0.47087
 C1208 C -0.04746 0.11842 0.46783
 C1209 C -0.05050 0.10208 0.48452
 C1210 C -0.03726 0.10149 0.50456
 C1211 C -0.02817 0.15102 0.45402
 C1212 C -0.01213 0.16750 0.45712
 C1213 C 0.00098 0.16770 0.47736
 C1214 C -0.00193 0.15116 0.49417
 C1215 C 0.01679 0.18448 0.48042
 C1216 C 0.01960 0.20084 0.46357
 C1217 C 0.00680 0.20066 0.44324
 C1218 C -0.00904 0.18381 0.44020
 H1219 H -0.01071 0.11769 0.52310
 H1220 H -0.05781 0.11831 0.45251
 H1221 H -0.06313 0.08968 0.48154
 H1222 H -0.03831 0.15095 0.43853
 H1223 H 0.00822 0.15122 0.50965
 H1224 H 0.02691 0.18501 0.49588
 H1225 H 0.03168 0.21380 0.46660
 H1226 H -0.01880 0.18312 0.42450
 C1227 C 0.44709 0.60541 0.99549
 C1228 C 0.45375 0.62459 0.98357
 C1229 C 0.46945 0.63919 0.99359
 C1230 C 0.47836 0.63416 1.01534
 C1231 C 0.47188 0.61478 1.02697
 C1232 C 0.45616 0.60026 1.01721
 C1233 C 0.47612 0.65839 0.98162
 C1234 C 0.46759 0.66288 0.95958
 C1235 C 0.45209 0.64807 0.94953
 C1236 C 0.44512 0.62917 0.96165
 C1237 C 0.44395 0.65222 0.92738
 C1238 C 0.45120 0.67075 0.91514
 C1239 C 0.46648 0.68584 0.92489
 C1240 C 0.47451 0.68179 0.94728
 H1241 H 0.43510 0.59427 0.98764
 H1242 H 0.49045 0.64511 1.02328
 H1243 H 0.47910 0.61125 1.04369
 H1244 H 0.48812 0.66963 0.98932
 H1245 H 0.43319 0.61787 0.95391
 H1246 H 0.43221 0.64091 0.91937
 H1247 H 0.44510 0.67296 0.89780
 H1248 H 0.48609 0.69332 0.95520
 C1249 C 0.52461 0.92666 0.99373
 C1250 C 0.52105 0.90743 0.97968
 C1251 C 0.50399 0.89249 0.98431
 C1252 C 0.49068 0.89701 1.00255
 C1253 C 0.49401 0.91623 1.01611
 C1254 C 0.51099 0.93139 1.01204
 C1255 C 0.50030 0.87330 0.97055
 C1256 C 0.51315 0.86895 0.95185
 C1257 C 0.53007 0.88390 0.94689
 C1258 C 0.53404 0.90298 0.96095
 C1259 C 0.54260 0.87952 0.92788
 C1260 C 0.53832 0.86061 0.91390
 C1261 C 0.52153 0.84558 0.91874
 C1262 C 0.50915 0.84988 0.93795
 H1263 H 0.53772 0.93805 0.99012
 H1264 H 0.47752 0.88573 1.00627
 H1265 H 0.48316 0.91902 1.02998
 H1266 H 0.48723 0.86187 0.97425
 H1267 H 0.54707 0.91443 0.95720
 H1268 H 0.55559 0.89082 0.92371
 H1269 H 0.54798 0.85794 0.89910
 H1270 H 0.49647 0.83826 0.94227
 C1271 C 0.06360 0.43013 0.50121
 C1272 C 0.05842 0.41150 0.48694
 C1273 C 0.04335 0.39528 0.49395
 C1274 C 0.03358 0.39794 0.51484
 C1275 C 0.03841 0.41663 0.52867
 C1276 C 0.05344 0.43306 0.52215
 C1277 C 0.03798 0.37675 0.47989
 C1278 C 0.04710 0.37439 0.45860
 C1279 C 0.06203 0.39060 0.45134
 C1280 C 0.06778 0.40897 0.46565
 C1281 C 0.07078 0.38821 0.42979
 C1282 C 0.06460 0.37008 0.41553
 C1283 C 0.04967 0.35391 0.42262
 C1284 C 0.04124 0.35613 0.44437
 H1285 H 0.07514 0.44252 0.49572
 H1286 H 0.02198 0.38565 0.52042
 H1287 H 0.03028 0.41805 0.54461
 H1288 H 0.02642 0.36435 0.48538
 H1289 H 0.07926 0.42142 0.46011
 H1290 H 0.08221 0.40048 0.42386
 H1291 H 0.07124 0.36895 0.39882
 H1292 H 0.03013 0.34354 0.45036
 C1293 C 0.43398 0.48210 0.45469
 C1294 C 0.41594 0.49515 0.46173
 C1295 C 0.40333 0.48706 0.47945
 C1296 C 0.40894 0.46601 0.48976
 C1297 C 0.42700 0.45316 0.48273
 C1298 C 0.43975 0.46108 0.46519
 C1299 C 0.38539 0.50018 0.48663
 C1300 C 0.37996 0.52132 0.47636
 C1301 C 0.39260 0.52939 0.45863
 C1302 C 0.41047 0.51623 0.45140
 C1303 C 0.38718 0.55053 0.44843
 C1304 C 0.36940 0.56361 0.45572
 C1305 C 0.35671 0.55581 0.47334
 C1306 C 0.36212 0.53458 0.48358
 H1307 H 0.44363 0.48850 0.44118
 H1308 H 0.39944 0.45953 0.50335
 H1309 H 0.43101 0.43703 0.49111
 H1310 H 0.37572 0.49398 0.50025
 H1311 H 0.42017 0.52245 0.43781
 H1312 H 0.39665 0.55693 0.43478
 H1313 H 0.36539 0.57973 0.44732
 H1314 H 0.35262 0.52852 0.49737
 C1315 C 0.90360 -0.02457 -0.03823
 C1316 C 0.88328 -0.01376 -0.03488
 C1317 C 0.86774 -0.02467 -0.02183
 C1318 C 0.87296 -0.04600 -0.01197
 C1319 C 0.89346 -0.05635 -0.01477
 C1320 C 0.90906 -0.04586 -0.02801
 C1321 C 0.84741 -0.01391 -0.01848
 C1322 C 0.84274 0.00806 -0.02725
 C1323 C 0.85848 0.01918 -0.03984
 C1324 C 0.87848 0.00805 -0.04395
 C1325 C 0.85418 0.04149 -0.04770
 C1326 C 0.83465 0.05290 -0.04276
 C1327 C 0.81863 0.04201 -0.03043
 C1328 C 0.82278 0.01931 -0.02309
 H1329 H 0.91534 -0.01600 -0.04832
 H1330 H 0.86129 -0.05457 -0.00182
 H1331 H 0.89692 -0.07275 -0.00668
 H1332 H 0.83546 -0.02237 -0.00855
 H1333 H 0.89049 0.01659 -0.05371
 H1334 H 0.86617 0.05038 -0.05716
 H1335 H 0.83247 0.07052 -0.04817
 H1336 H 0.81064 0.01035 -0.01394
 C1337 C 0.56952 -0.00697 0.02201
 C1338 C 0.58737 0.00755 0.02054
 C1339 C 0.58762 0.02838 0.03284
 C1340 C 0.57011 0.03430 0.04642
 C1341 C 0.55254 0.01973 0.04795
 C1342 C 0.55200 -0.00106 0.03582
 C1343 C 0.60541 0.04289 0.03150
 C1344 C 0.62311 0.03679 0.01817
 C1345 C 0.62292 0.01594 0.00591
 C1346 C 0.60503 0.00150 0.00710
 C1347 C 0.64070 0.00982 -0.00725
 C1348 C 0.65854 0.02414 -0.00824
 C1349 C 0.65897 0.04498 0.00382
 C1350 C 0.64106 0.05118 0.01698
 H1351 H 0.56943 -0.02295 0.01262
 H1352 H 0.57003 0.05019 0.05596
 H1353 H 0.53931 0.02483 0.05866
 H1354 H 0.60555 0.05886 0.04096
 H1355 H 0.60492 -0.01449 -0.00231
 H1356 H 0.64089 -0.00614 -0.01667
 H1357 H 0.67220 0.01867 -0.01818
 H1358 H 0.64099 0.06728 0.02615
 C1359 C 0.11117 0.49657 0.52627
 C1360 C 0.12793 0.51208 0.52298
 C1361 C 0.12715 0.53382 0.53362
 C1362 C 0.10969 0.53973 0.54725
 C1363 C 0.09334 0.52412 0.55075
 C1364 C 0.09393 0.50236 0.54045
 C1365 C 0.14401 0.54919 0.53082
 C1366 C 0.16192 0.54300 0.51787
 C1367 C 0.16276 0.52131 0.50718
 C1368 C 0.14567 0.50605 0.50963
 C1369 C 0.18087 0.51514 0.49448
 C1370 C 0.19812 0.53014 0.49271
 C1371 C 0.19756 0.55169 0.50345
 C1372 C 0.17918 0.55805 0.51579
 H1373 H 0.11188 0.47981 0.51834
 H1374 H 0.10883 0.55632 0.55550
 H1375 H 0.08019 0.52912 0.56161
 H1376 H 0.14339 0.56582 0.53908
 H1377 H 0.14637 0.48937 0.50150
 H1378 H 0.18185 0.49857 0.48620
 H1379 H 0.21216 0.52463 0.48333
 H1380 H 0.17831 0.57474 0.52385
 C1381 C 0.07564 0.51594 -0.04261
 C1382 C 0.09617 0.50463 -0.04152
 C1383 C 0.11307 0.51316 -0.02711
 C1384 C 0.10906 0.53266 -0.01384
 C1385 C 0.08853 0.54365 -0.01482
 C1386 C 0.07163 0.53553 -0.02926
 C1387 C 0.13365 0.50204 -0.02611
 C1388 C 0.13748 0.48222 -0.03904
 C1389 C 0.12051 0.47351 -0.05321
 C1390 C 0.10003 0.48486 -0.05450
 C1391 C 0.12424 0.45346 -0.06572
 C1392 C 0.14452 0.44198 -0.06408
 C1393 C 0.16166 0.45046 -0.05015
 C1394 C 0.15796 0.47082 -0.03781
 H1395 H 0.06276 0.50937 -0.05373
 H1396 H 0.12179 0.53940 -0.00266
 H1397 H 0.08599 0.55872 -0.00440
 H1398 H 0.14661 0.50866 -0.01511
 H1399 H 0.08705 0.47819 -0.06546
 H1400 H 0.11137 0.44644 -0.07655
 H1401 H 0.14656 0.42613 -0.07341
 H1402 H 0.17099 0.47788 -0.02725
 C1403 C 0.59379 0.99784 0.48880
 C1404 C 0.61277 0.98369 0.49016
 C1405 C 0.61528 0.96549 0.47451
 C1406 C 0.59927 0.96213 0.45742
 C1407 C 0.58088 0.97659 0.45571
 C1408 C 0.57765 0.99453 0.47144
 C1409 C 0.63383 0.95099 0.47600
 C1410 C 0.65038 0.95480 0.49250
 C1411 C 0.64835 0.97339 0.50772
 C1412 C 0.62942 0.98755 0.50668
 C1413 C 0.66539 0.97755 0.52361
 C1414 C 0.68419 0.96343 0.52442
 C1415 C 0.68622 0.94450 0.50969
 C1416 C 0.66902 0.94034 0.49382
 H1417 H 0.59188 1.01164 0.50096
 H1418 H 0.60103 0.94836 0.44521
 H1419 H 0.56896 0.97330 0.44213
 H1420 H 0.63553 0.93690 0.46410
 H1421 H 0.62777 1.00167 0.51854
 H1422 H 0.66428 0.99188 0.53527
 H1423 H 0.69723 0.96758 0.53650
 H1424 H 0.66992 0.92569 0.48257
 C1425 C 0.91737 1.02022 0.54564
 C1426 C 0.89892 1.00663 0.54266
 C1427 C 0.88149 1.01401 0.52783
 C1428 C 0.88298 1.03454 0.51586
 C1429 C 0.90170 1.04752 0.51822
 C1430 C 0.91914 1.04064 0.53317
 C1431 C 0.86304 1.00054 0.52477
 C1432 C 0.86218 0.97924 0.53557
 C1433 C 0.87980 0.97153 0.54995
 C1434 C 0.89788 0.98547 0.55378
 C1435 C 0.87922 0.94978 0.55987
 C1436 C 0.86157 0.93562 0.55521
 C1437 C 0.84381 0.94313 0.54101
 C1438 C 0.84416 0.96529 0.53167
 H1439 H 0.93063 1.01439 0.55708
 H1440 H 0.86980 1.04038 0.50434
 H1441 H 0.90231 1.06314 0.50842
 H1442 H 0.84963 1.00631 0.51348
 H1443 H 0.91137 0.97960 0.56492
 H1444 H 0.89268 0.94348 0.57079
 H1445 H 0.86214 0.91856 0.56238
 H1446 H 0.83050 0.97177 0.52117
 C1447 C 0.40194 0.51459 0.02947
 C1448 C 0.38340 0.50333 0.02091
 C1449 C 0.36709 0.51569 0.00807
 C1450 C 0.36972 0.53904 0.00381
 C1451 C 0.38840 0.55001 0.01202
 C1452 C 0.40467 0.53794 0.02492
 C1453 C 0.34852 0.50449 -0.00048
 C1454 C 0.34621 0.48099 0.00334
 C1455 C 0.36267 0.46859 0.01593
 C1456 C 0.38107 0.47985 0.02476
 C1457 C 0.36051 0.44506 0.01942
 C1458 C 0.34218 0.43389 0.01065
 C1459 C 0.32548 0.44603 -0.00162
 C1460 C 0.32770 0.46966 -0.00527
 H1461 H 0.41447 0.50504 0.03921
 H1462 H 0.35742 0.54878 -0.00603
 H1463 H 0.39006 0.56803 0.00833
 H1464 H 0.33599 0.51402 -0.01024
 H1465 H 0.39363 0.47030 0.03447
 H1466 H 0.37305 0.43525 0.02886
 H1467 H 0.34119 0.41562 0.01333
 H1468 H 0.31491 0.47932 -0.01449
 C1469 C 0.51887 0.43860 0.40619
 C1470 C 0.52942 0.44593 0.38685
 C1471 C 0.52191 0.46611 0.37547
 C1472 C 0.50414 0.47869 0.38367
 C1473 C 0.49374 0.47130 0.40283
 C1474 C 0.50086 0.45115 0.41426
 C1475 C 0.53220 0.47340 0.35605
 C1476 C 0.54998 0.46081 0.34781
 C1477 C 0.55762 0.44070 0.35922
 C1478 C 0.54727 0.43336 0.37864
 C1479 C 0.57554 0.42830 0.35102
 C1480 C 0.58585 0.43578 0.33178
 C1481 C 0.57836 0.45573 0.32030
 C1482 C 0.56032 0.46811 0.32839
 H1483 H 0.52457 0.42305 0.41477
 H1484 H 0.49821 0.49421 0.37519
 H1485 H 0.47996 0.48140 0.40859
 H1486 H 0.52637 0.48886 0.34735
 H1487 H 0.55311 0.41791 0.38734
 H1488 H 0.58161 0.41283 0.35951
 H1489 H 0.59961 0.42585 0.32572
 H1490 H 0.55460 0.48367 0.31981
 C1491 C -0.00835 -0.06309 0.92211
 C1492 C 0.00459 -0.05393 0.90538
 C1493 C 0.00501 -0.02991 0.90233
 C1494 C -0.00779 -0.01551 0.91579
 C1495 C -0.02114 -0.02479 0.93186
 C1496 C -0.02151 -0.04859 0.93519
 C1497 C 0.01787 -0.02070 0.88562
 C1498 C 0.02981 -0.03520 0.87140
 C1499 C 0.02903 -0.05921 0.87414
 C1500 C 0.01669 -0.06842 0.89130
 C1501 C 0.04039 -0.07366 0.85945
 C1502 C 0.05238 -0.06446 0.84217
 C1503 C 0.05367 -0.04057 0.83944
 C1504 C 0.04230 -0.02606 0.85429
 H1505 H -0.00881 -0.08149 0.92439
 H1506 H -0.00775 0.00292 0.91363
 H1507 H -0.03115 -0.01333 0.94181
 H1508 H 0.01825 -0.00227 0.88339
 H1509 H 0.01620 -0.08685 0.89343
 H1510 H 0.03978 -0.09211 0.86113
 H1511 H 0.06039 -0.07619 0.83074
 H1512 H 0.04325 -0.00763 0.85270
 C1513 C -0.01524 0.03997 0.58849
 C1514 C -0.00003 0.03568 0.60648
 C1515 C 0.01929 0.04834 0.60820
 C1516 C 0.02310 0.06500 0.59182
 C1517 C 0.00783 0.06926 0.57403
 C1518 C -0.01154 0.05689 0.57219
 C1519 C 0.03437 0.04431 0.62634
 C1520 C 0.03027 0.02793 0.64293
 C1521 C 0.01098 0.01520 0.64115
 C1522 C -0.00400 0.01908 0.62290
 C1523 C 0.00691 -0.00107 0.65782
 C1524 C 0.02164 -0.00448 0.67626
 C1525 C 0.04077 0.00823 0.67836
 C1526 C 0.04504 0.02427 0.66141
 H1527 H -0.03006 0.03026 0.58739
 H1528 H 0.03784 0.07485 0.59287
 H1529 H 0.01117 0.08234 0.56175
 H1530 H 0.04916 0.05410 0.62770
 H1531 H -0.01883 0.00936 0.62159
 H1532 H -0.00780 -0.01095 0.65674
 H1533 H 0.01780 -0.01675 0.68916
 H1534 H 0.05991 0.03393 0.66258
 C1535 C 0.49109 0.54918 0.08065
 C1536 C 0.50421 0.54024 0.09872
 C1537 C 0.49561 0.52414 0.11361
 C1538 C 0.47409 0.51702 0.10992
 C1539 C 0.46121 0.52580 0.09171
 C1540 C 0.46950 0.54205 0.07698
 C1541 C 0.50864 0.51545 0.13190
 C1542 C 0.53024 0.52248 0.13534
 C1543 C 0.53889 0.53831 0.12019
 C1544 C 0.52582 0.54714 0.10206
 C1545 C 0.56052 0.54510 0.12341
 C1546 C 0.57345 0.53650 0.14159
 C1547 C 0.56502 0.52107 0.15710
 C1548 C 0.54333 0.51402 0.15372
 H1549 H 0.49779 0.56154 0.06932
 H1550 H 0.46723 0.50465 0.12111
 H1551 H 0.44464 0.52002 0.08932
 H1552 H 0.50198 0.50321 0.14341
 H1553 H 0.53248 0.55938 0.09055
 H1554 H 0.56746 0.55705 0.11185
 H1555 H 0.59020 0.54184 0.14340
 H1556 H 0.53651 0.50230 0.16560
 C1557 C 0.48884 -0.00732 0.09212
 C1558 C 0.47325 -0.00419 0.10882
 C1559 C 0.45298 -0.01515 0.10639
 C1560 C 0.44861 -0.02898 0.08742
 C1561 C 0.46425 -0.03227 0.07113
 C1562 C 0.48454 -0.02161 0.07329
 C1563 C 0.43746 -0.01240 0.12306
 C1564 C 0.44201 0.00089 0.14239
 C1565 C 0.46224 0.01188 0.14494
 C1566 C 0.47769 0.00939 0.12807
 C1567 C 0.46671 0.02498 0.16446
 C1568 C 0.45140 0.02699 0.18137
 C1569 C 0.43126 0.01603 0.17905
 C1570 C 0.42667 0.00315 0.15934
 H1571 H 0.50445 0.00090 0.09405
 H1572 H 0.43316 -0.03747 0.08530
 H1573 H 0.46040 -0.04323 0.05676
 H1574 H 0.42196 -0.02087 0.12114
 H1575 H 0.49323 0.01777 0.13004
 H1576 H 0.48214 0.03347 0.16676
 H1577 H 0.45550 0.03680 0.19647
 H1578 H 0.41109 -0.00507 0.15711
 C1579 C 1.01611 0.46560 0.59077
 C1580 C 1.00306 0.46910 0.60954
 C1581 C 1.00997 0.48404 0.62715
 C1582 C 1.02972 0.49539 0.62555
 C1583 C 1.04246 0.49208 0.60661
 C1584 C 1.03583 0.47713 0.58909
 C1585 C 0.99693 0.48756 0.64594
 C1586 C 0.97685 0.47670 0.64709
 C1587 C 0.96985 0.46197 0.62935
 C1588 C 0.98308 0.45809 0.61079
 C1589 C 0.94959 0.45155 0.63033
 C1590 C 0.93624 0.45586 0.64859
 C1591 C 0.94298 0.47043 0.66642
 C1592 C 0.96352 0.48059 0.66560
 H1593 H 1.01069 0.45417 0.57730
 H1594 H 1.03524 0.50694 0.63886
 H1595 H 1.05760 0.50112 0.60577
 H1596 H 1.00225 0.49898 0.65947
 H1597 H 0.97772 0.44675 0.59721
 H1598 H 0.94392 0.44032 0.61681
 H1599 H 0.92039 0.44811 0.64846
 H1600 H 0.96920 0.49154 0.67934
 C1601 C 1.00427 0.53477 0.91421
 C1602 C 0.98869 0.53092 0.89655
 C1603 C 0.96818 0.54258 0.89662
 C1604 C 0.96354 0.55779 0.91424
 C1605 C 0.97906 0.56159 0.93163
 C1606 C 0.99960 0.55022 0.93186
 C1607 C 0.95262 0.53898 0.87904
 C1608 C 0.95728 0.52396 0.86122
 C1609 C 0.97772 0.51221 0.86106
 C1610 C 0.99330 0.51571 0.87876
 C1611 C 0.98225 0.49725 0.84311
 C1612 C 0.96676 0.49411 0.82541
 C1613 C 0.94642 0.50584 0.82534
 C1614 C 0.94179 0.52065 0.84346
 H1615 H 1.02000 0.52587 0.91411
 H1616 H 0.94790 0.56685 0.91456
 H1617 H 0.97488 0.57353 0.94495
 H1618 H 0.93692 0.54800 0.87915
 H1619 H 1.00900 0.50673 0.87861
 H1620 H 0.99784 0.48812 0.84265
 H1621 H 0.97087 0.48281 0.81154
 H1622 H 0.92606 0.52952 0.84381
 C1623 C 0.49188 0.02894 0.42556
 C1624 C 0.47902 0.02772 0.40537
 C1625 C 0.48686 0.01513 0.38671
 C1626 C 0.50723 0.00376 0.38863
 C1627 C 0.51985 0.00494 0.40877
 C1628 C 0.51242 0.01762 0.42740
 C1629 C 0.47424 0.01408 0.36643
 C1630 C 0.45374 0.02525 0.36461
 C1631 C 0.44574 0.03764 0.38329
 C1632 C 0.45848 0.03889 0.40354
 C1633 C 0.42509 0.04849 0.38141
 C1634 C 0.41241 0.04695 0.36127
 C1635 C 0.42022 0.03470 0.34253
 C1636 C 0.44106 0.02406 0.34436
 H1637 H 0.48587 0.03870 0.43978
 H1638 H 0.51345 -0.00600 0.37451
 H1639 H 0.53559 -0.00392 0.40963
 H1640 H 0.48033 0.00449 0.35212
 H1641 H 0.45238 0.04848 0.41786
 H1642 H 0.41864 0.05798 0.39559
 H1643 H 0.39632 0.05504 0.36052
 H1644 H 0.44753 0.01492 0.32998
   
