data_POSCAR
  _audit_creation_date              2014-09-24
  _audit_creation_method            'ToBaCCo'
  _symmetry_space_group_name_H-M    'P1'
  _symmetry_Int_Tables_number       1
  _symmetry_cell_setting            triclinic
  loop_
  _symmetry_equiv_pos_as_xyz
 x,y,z
_cell_length_a 93.4908
_cell_length_b 93.6617
_cell_length_c 93.2963
_cell_angle_alpha 89.939700
_cell_angle_beta 90.293000
_cell_angle_gamma 90.323500
loop_
  _atom_site_label
  _atom_site_type_symbol
  _atom_site_fract_x
  _atom_site_fract_y
  _atom_site_fract_z
C1 C 0.32621 0.44209 0.92513
 C2 C 0.32007 0.44756 0.91252
 C3 C 0.30832 0.44067 0.90598
 C4 C 0.30277 0.42815 0.91224
 C5 C 0.30872 0.42263 0.92490
 C6 C 0.32047 0.42964 0.93138
 C7 C 0.33817 0.44878 0.93141
 C8 C 0.34464 0.44329 0.94400
 C9 C 0.33840 0.43099 0.95031
 C10 C 0.32654 0.42413 0.94405
 C11 C 0.32075 0.41173 0.95024
 C12 C 0.30917 0.40451 0.94374
 C13 C 0.30321 0.41010 0.93105
 H14 H 0.32435 0.45728 0.90789
 H15 H 0.29393 0.42256 0.90715
 H16 H 0.34276 0.45785 0.92588
 H17 H 0.34246 0.42679 0.96033
 H18 H 0.32531 0.40767 0.96013
 H19 H 0.29446 0.40454 0.92578
 C20 C 0.45308 0.81767 0.43010
 C21 C 0.46054 0.82885 0.43689
 C22 C 0.45595 0.83438 0.45021
 C23 C 0.44411 0.82772 0.45687
 C24 C 0.43648 0.81671 0.45010
 C25 C 0.44088 0.81172 0.43662
 C26 C 0.45738 0.81270 0.41663
 C27 C 0.44950 0.80204 0.40942
 C28 C 0.43726 0.79620 0.41601
 C29 C 0.43291 0.80096 0.42955
 C30 C 0.42047 0.79547 0.43596
 C31 C 0.41595 0.80056 0.44938
 C32 C 0.42422 0.81095 0.45648
 H33 H 0.46933 0.83376 0.43118
 H34 H 0.44073 0.83094 0.46745
 H35 H 0.46690 0.81717 0.41174
 H36 H 0.43093 0.78820 0.41045
 H37 H 0.41409 0.78756 0.43032
 H38 H 0.42096 0.81477 0.46692
 C39 C 0.94313 0.92276 0.82650
 C40 C 0.94988 0.91110 0.82006
 C41 C 0.94407 0.90440 0.80774
 C42 C 0.93157 0.91037 0.80161
 C43 C 0.92485 0.92221 0.80785
 C44 C 0.93056 0.92831 0.82044
 C45 C 0.94876 0.92877 0.83907
 C46 C 0.94181 0.94009 0.84619
 C47 C 0.92925 0.94567 0.83980
 C48 C 0.92365 0.93989 0.82704
 C49 C 0.91103 0.94531 0.82096
 C50 C 0.90525 0.93936 0.80833
 C51 C 0.91229 0.92782 0.80184
 H52 H 0.95987 0.90751 0.82466
 H53 H 0.92645 0.90546 0.79243
 H54 H 0.95883 0.92466 0.84304
 H55 H 0.92329 0.95405 0.84499
 H56 H 0.90555 0.95400 0.82622
 H57 H 0.90804 0.92324 0.79203
 C58 C 0.44383 -0.08044 0.32611
 C59 C 0.45026 -0.09245 0.31995
 C60 C 0.44467 -0.09861 0.30734
 C61 C 0.43260 -0.09239 0.30080
 C62 C 0.42594 -0.08049 0.30693
 C63 C 0.43153 -0.07453 0.31966
 C64 C 0.44941 -0.07435 0.33870
 C65 C 0.44277 -0.06251 0.34508
 C66 C 0.43037 -0.05685 0.33868
 C67 C 0.42476 -0.06272 0.32601
 C68 C 0.41238 -0.05706 0.31970
 C69 C 0.40672 -0.06290 0.30698
 C70 C 0.41366 -0.07457 0.30061
 H71 H 0.45942 -0.09721 0.32522
 H72 H 0.42834 -0.09683 0.29093
 H73 H 0.45904 -0.07874 0.34343
 H74 H 0.42495 -0.04795 0.34365
 H75 H 0.40702 -0.04824 0.32486
 H76 H 0.40954 -0.07906 0.29071
 C77 C 0.82588 0.30587 0.32466
 C78 C 0.82023 0.29977 0.33716
 C79 C 0.80867 0.30614 0.34427
 C80 C 0.80256 0.31859 0.33847
 C81 C 0.80804 0.32476 0.32591
 C82 C 0.81978 0.31842 0.31901
 C83 C 0.83774 0.29977 0.31792
 C84 C 0.84364 0.30601 0.30556
 C85 C 0.83737 0.31845 0.29989
 C86 C 0.82557 0.32474 0.30658
 C87 C 0.81966 0.33741 0.30120
 C88 C 0.80797 0.34387 0.30803
 C89 C 0.80215 0.33734 0.32031
 H90 H 0.82488 0.29004 0.34136
 H91 H 0.79381 0.32375 0.34396
 H92 H 0.84262 0.29036 0.32258
 H93 H 0.84168 0.32327 0.29026
 H94 H 0.82444 0.34243 0.29191
 H95 H 0.79300 0.34205 0.32556
 C96 C -0.19046 0.82984 0.82713
 C97 C -0.19667 0.84218 0.82126
 C98 C -0.19143 0.84834 0.80842
 C99 C -0.18001 0.84139 0.80146
 C100 C -0.17358 0.82923 0.80733
 C101 C -0.17878 0.82342 0.82020
 C102 C -0.19551 0.82403 0.84005
 C103 C -0.18910 0.81184 0.84611
 C104 C -0.17747 0.80552 0.83904
 C105 C -0.17219 0.81129 0.82623
 C106 C -0.16023 0.80529 0.81951
 C107 C -0.15480 0.81122 0.80677
 C108 C -0.16180 0.82299 0.80060
 H109 H -0.20511 0.84728 0.82723
 H110 H -0.17614 0.84516 0.79121
 H111 H -0.20426 0.82918 0.84554
 H112 H -0.17253 0.79604 0.84347
 H113 H -0.15488 0.79630 0.82447
 H114 H -0.15794 0.82746 0.79061
 C115 C 0.92466 0.32274 0.44065
 C116 C 0.93080 0.33524 0.44633
 C117 C 0.94228 0.34229 0.43939
 C118 C 0.94757 0.33613 0.42662
 C119 C 0.94145 0.32370 0.42079
 C120 C 0.92994 0.31699 0.42781
 C121 C 0.91306 0.31610 0.44750
 C122 C 0.90649 0.30388 0.44157
 C123 C 0.91193 0.29817 0.42878
 C124 C 0.92361 0.30462 0.42189
 C125 C 0.92887 0.29901 0.40903
 C126 C 0.94032 0.30568 0.40186
 C127 C 0.94658 0.31800 0.40789
 H128 H 0.92597 0.33975 0.45580
 H129 H 0.95677 0.34066 0.42126
 H130 H 0.90914 0.32048 0.45747
 H131 H 0.90684 0.28893 0.42393
 H132 H 0.92407 0.28940 0.40462
 H133 H 0.95522 0.32341 0.40235
 C134 C 0.42677 0.44718 0.82102
 C135 C 0.43122 0.45204 0.83455
 C136 C 0.44236 0.44519 0.84200
 C137 C 0.44907 0.43336 0.83569
 C138 C 0.44483 0.42846 0.82210
 C139 C 0.43367 0.43542 0.81472
 C140 C 0.41536 0.45374 0.81383
 C141 C 0.41071 0.44873 0.80037
 C142 C 0.41791 0.43724 0.79398
 C143 C 0.42927 0.43050 0.80110
 C144 C 0.43610 0.41873 0.79494
 C145 C 0.44708 0.41156 0.80233
 C146 C 0.45141 0.41656 0.81591
 H147 H 0.42606 0.46125 0.83922
 H148 H 0.45746 0.42781 0.84145
 H149 H 0.40978 0.46245 0.81896
 H150 H 0.41457 0.43344 0.78351
 H151 H 0.43280 0.41513 0.78439
 H152 H 0.45968 0.41099 0.82183
 C153 C 0.81324 0.93519 0.95480
 C154 C 0.80786 0.92204 0.95971
 C155 C 0.79539 0.91583 0.95363
 C156 C 0.78837 0.92341 0.94254
 C157 C 0.79372 0.93644 0.93744
 C158 C 0.80614 0.94240 0.94365
 C159 C 0.82599 0.94089 0.96050
 C160 C 0.83187 0.95384 0.95525
 C161 C 0.82418 0.96116 0.94443
 C162 C 0.81162 0.95544 0.93847
 C163 C 0.80472 0.96237 0.92705
 C164 C 0.79266 0.95621 0.92039
 C165 C 0.78706 0.94337 0.92587
 H166 H 0.81396 0.91640 0.96779
 H167 H 0.77846 0.91946 0.93795
 H168 H 0.83164 0.93464 0.96844
 H169 H 0.82775 0.97147 0.94060
 H170 H 0.80900 0.97240 0.92310
 H171 H 0.77789 0.93838 0.92073
 C172 C 0.32449 0.82592 0.30376
 C173 C 0.31911 0.83871 0.29823
 C174 C 0.30787 0.84604 0.30506
 C175 C 0.30171 0.83968 0.31738
 C176 C 0.30690 0.82671 0.32291
 C177 C 0.31842 0.81988 0.31613
 C178 C 0.33611 0.81925 0.29718
 C179 C 0.34213 0.80682 0.30306
 C180 C 0.33584 0.80067 0.31528
 C181 C 0.32401 0.80710 0.32182
 C182 C 0.31788 0.80111 0.33413
 C183 C 0.30639 0.80784 0.34105
 C184 C 0.30100 0.82067 0.33534
 H185 H 0.32363 0.84268 0.28834
 H186 H 0.29334 0.84504 0.32321
 H187 H 0.34063 0.82390 0.28756
 H188 H 0.34044 0.79116 0.32001
 H189 H 0.32204 0.79115 0.33829
 H190 H 0.29237 0.82613 0.34074
 C191 C 0.81803 0.43387 0.44929
 C192 C 0.81060 0.42222 0.45513
 C193 C 0.79929 0.41566 0.44755
 C194 C 0.79512 0.42133 0.43422
 C195 C 0.80226 0.43319 0.42840
 C196 C 0.81384 0.43943 0.43591
 C197 C 0.82983 0.43978 0.45651
 C198 C 0.83800 0.45100 0.45044
 C199 C 0.83329 0.45675 0.43719
 C200 C 0.82135 0.45106 0.42995
 C201 C 0.81704 0.45656 0.41660
 C202 C 0.80548 0.45044 0.40902
 C203 C 0.79822 0.43868 0.41502
 H204 H 0.81378 0.41810 0.46552
 H205 H 0.78658 0.41626 0.42815
 H206 H 0.83242 0.43559 0.46701
 H207 H 0.83931 0.46510 0.43190
 H208 H 0.82268 0.46567 0.41216
 H209 H 0.78956 0.43360 0.40914
 C210 C 0.94563 0.82134 -0.07788
 C211 C 0.95191 0.83377 -0.07216
 C212 C 0.94659 0.83999 -0.05952
 C213 C 0.93501 0.83339 -0.05250
 C214 C 0.92870 0.82092 -0.05802
 C215 C 0.93398 0.81493 -0.07080
 C216 C 0.95066 0.81544 -0.09074
 C217 C 0.94416 0.80315 -0.09684
 C218 C 0.93261 0.79681 -0.08938
 C219 C 0.92747 0.80263 -0.07658
 C220 C 0.91575 0.79637 -0.06960
 C221 C 0.91038 0.80224 -0.05685
 C222 C 0.91702 0.81450 -0.05109
 H223 H 0.96096 0.83859 -0.07756
 H224 H 0.93061 0.83818 -0.04293
 H225 H 0.95919 0.82099 -0.09626
 H226 H 0.92774 0.78700 -0.09317
 H227 H 0.91055 0.78714 -0.07434
 H228 H 0.91313 0.81905 -0.04119
 C229 C 0.32056 0.32196 0.80282
 C230 C 0.31427 0.33481 0.79839
 C231 C 0.30277 0.34071 0.80604
 C232 C 0.29755 0.33347 0.81818
 C233 C 0.30379 0.32067 0.82280
 C234 C 0.31532 0.31489 0.81509
 C235 C 0.33216 0.31620 0.79532
 C236 C 0.33869 0.30350 0.79999
 C237 C 0.33335 0.29653 0.81222
 C238 C 0.32174 0.30211 0.81977
 C239 C 0.31664 0.29522 0.83208
 C240 C 0.30526 0.30099 0.83994
 C241 C 0.29883 0.31369 0.83515
 H242 H 0.31856 0.34039 0.78917
 H243 H 0.28857 0.33777 0.82404
 H244 H 0.33608 0.32160 0.78583
 H245 H 0.33848 0.28692 0.81613
 H246 H 0.32154 0.28533 0.83553
 H247 H 0.29019 0.31836 0.84124
 C248 C 0.17939 0.55078 0.56889
 C249 C 0.16716 0.54440 0.56281
 C250 C 0.16090 0.55010 0.55032
 C251 C 0.16742 0.56187 0.54361
 C252 C 0.17940 0.56853 0.54974
 C253 C 0.18538 0.56306 0.56248
 C254 C 0.18542 0.54536 0.58154
 C255 C 0.19721 0.55221 0.58807
 C256 C 0.20298 0.56458 0.58169
 C257 C 0.19714 0.57006 0.56895
 C258 C 0.20258 0.58267 0.56282
 C259 C 0.19644 0.58831 0.55023
 C260 C 0.18509 0.58093 0.54359
 H261 H 0.16219 0.53538 0.56815
 H262 H 0.16294 0.56613 0.53378
 H263 H 0.18094 0.53578 0.58629
 H264 H 0.21181 0.57016 0.58681
 H265 H 0.21126 0.58832 0.56811
 H266 H 0.18047 0.58502 0.53374
 C267 C 0.57712 0.69065 0.07336
 C268 C 0.58937 0.69608 0.06657
 C269 C 0.59456 0.68976 0.05395
 C270 C 0.58710 0.67807 0.04801
 C271 C 0.57496 0.67241 0.05477
 C272 C 0.56998 0.67867 0.06753
 C273 C 0.57202 0.69688 0.08601
 C274 C 0.55999 0.69118 0.09307
 C275 C 0.55311 0.67907 0.08727
 C276 C 0.55797 0.67283 0.07456
 C277 C 0.55116 0.66068 0.06890
 C278 C 0.55606 0.65433 0.05618
 C279 C 0.56787 0.66043 0.04910
 H280 H 0.59508 0.70498 0.07137
 H281 H 0.59080 0.67327 0.03814
 H282 H 0.57737 0.70625 0.09029
 H283 H 0.54406 0.67435 0.09278
 H284 H 0.54223 0.65598 0.07461
 H285 H 0.57163 0.65582 0.03917
 C286 C 0.69650 0.18065 0.68136
 C287 C 0.70336 0.18638 0.66931
 C288 C 0.69719 0.19767 0.66154
 C289 C 0.68431 0.20361 0.66639
 C290 C 0.67746 0.19812 0.67856
 C291 C 0.68349 0.18648 0.68599
 C292 C 0.70235 0.16894 0.68861
 C293 C 0.69524 0.16250 0.70032
 C294 C 0.68226 0.16867 0.70495
 C295 C 0.67639 0.18054 0.69789
 C296 C 0.66328 0.18630 0.70228
 C297 C 0.65720 0.19795 0.69495
 C298 C 0.66447 0.20385 0.68316
 H299 H 0.71342 0.18188 0.66583
 H300 H 0.67932 0.21218 0.66040
 H301 H 0.71267 0.16511 0.68514
 H302 H 0.67617 0.16389 0.71356
 H303 H 0.65764 0.18149 0.71120
 H304 H 0.66003 0.21295 0.67754
 C305 C 1.07834 0.06301 0.17458
 C306 C 1.09147 0.05814 0.18011
 C307 C 1.09778 0.06471 0.19219
 C308 C 1.09074 0.07620 0.19873
 C309 C 1.07770 0.08122 0.19331
 C310 C 1.07145 0.07457 0.18124
 C311 C 1.07216 0.05669 0.16232
 C312 C 1.05909 0.06174 0.15649
 C313 C 1.05223 0.07310 0.16367
 C314 C 1.05835 0.07959 0.17577
 C315 C 1.05160 0.09119 0.18236
 C316 C 1.05792 0.09812 0.19420
 C317 C 1.07095 0.09295 0.19967
 H318 H 1.09691 0.04942 0.17486
 H319 H 1.09535 0.08121 0.20816
 H320 H 1.07803 0.04830 0.15704
 H321 H 1.04185 0.07682 0.16019
 H322 H 1.04143 0.09490 0.17819
 H323 H 1.07607 0.09829 0.20864
 C324 C 0.04940 0.17882 1.06662
 C325 C 0.04463 0.16555 1.06142
 C326 C 0.05126 0.15893 1.04956
 C327 C 0.06274 0.16627 1.04291
 C328 C 0.06774 0.17942 1.04815
 C329 C 0.06104 0.18574 1.06001
 C330 C 0.04298 0.18505 1.07865
 C331 C 0.04799 0.19817 1.08410
 C332 C 0.05951 0.20506 1.07728
 C333 C 0.06616 0.19887 1.06542
 C334 C 0.07813 0.20540 1.05917
 C335 C 0.08510 0.19902 1.04752
 C336 C 0.07959 0.18617 1.04187
 H337 H 0.03619 0.16018 1.06724
 H338 H 0.06774 0.16203 1.03341
 H339 H 0.03430 0.17950 1.08398
 H340 H 0.06336 0.21526 1.08124
 H341 H 0.08236 0.21518 1.06378
 H342 H 0.08471 0.18128 1.03272
 C343 C 0.17446 0.67509 0.69339
 C344 C 0.16269 0.68226 0.69912
 C345 C 0.15690 0.69428 0.69219
 C346 C 0.16315 0.69911 0.67934
 C347 C 0.17492 0.69198 0.67341
 C348 C 0.18058 0.67993 0.68048
 C349 C 0.18005 0.66302 0.70028
 C350 C 0.19160 0.65552 0.69436
 C351 C 0.19769 0.66047 0.68150
 C352 C 0.19228 0.67261 0.67456
 C353 C 0.19828 0.67739 0.66167
 C354 C 0.19266 0.68932 0.65444
 C355 C 0.18099 0.69660 0.66045
 H356 H 0.15781 0.67822 0.70884
 H357 H 0.15890 0.70844 0.67397
 H358 H 0.17540 0.65948 0.71030
 H359 H 0.20642 0.65467 0.67666
 H360 H 0.20742 0.67184 0.65731
 H361 H 0.17642 0.70567 0.65489
 C362 C 1.19740 0.17935 0.17959
 C363 C 1.20336 0.16751 0.18657
 C364 C 1.19764 0.16228 0.19958
 C365 C 1.18592 0.16964 0.20556
 C366 C 1.17983 0.18144 0.19863
 C367 C 1.18555 0.18632 0.18558
 C368 C 1.20289 0.18405 0.16644
 C369 C 1.19657 0.19551 0.15903
 C370 C 1.18483 0.20252 0.16520
 C371 C 1.17930 0.19801 0.17842
 C372 C 1.16739 0.20478 0.18442
 C373 C 1.16148 0.19989 0.19740
 C374 C 1.16786 0.18825 0.20445
 H375 H 1.21195 0.16197 0.18124
 H376 H 1.18159 0.16651 0.21583
 H377 H 1.21210 0.17873 0.16194
 H378 H 1.17973 0.21123 0.15952
 H379 H 1.16271 0.21385 0.17894
 H380 H 1.16324 0.18415 0.21426
 C381 C 0.67628 1.08008 0.55988
 C382 C 0.66480 1.07406 0.55218
 C383 C 0.65781 1.06168 0.55716
 C384 C 0.66262 1.05525 0.56993
 C385 C 0.67413 1.06109 0.57769
 C386 C 0.68095 1.07360 0.57268
 C387 C 0.68294 1.09264 0.55505
 C388 C 0.69437 1.09902 0.56279
 C389 C 0.69898 1.09222 0.57556
 C390 C 0.69235 1.07968 0.58053
 C391 C 0.69690 1.07318 0.59333
 C392 C 0.69016 1.06069 0.59843
 C393 C 0.67880 1.05472 0.59047
 H394 H 0.66136 1.07900 0.54225
 H395 H 0.65718 1.04587 0.57405
 H396 H 0.67858 1.09770 0.54558
 H397 H 0.70805 1.09629 0.58155
 H398 H 0.70550 1.07802 0.59949
 H399 H 0.67365 1.04500 0.59416
 C400 C 0.54986 0.56413 0.18382
 C401 C 0.54397 0.55871 0.17106
 C402 C 0.54896 0.54584 0.16517
 C403 C 0.55981 0.53830 0.17239
 C404 C 0.56595 0.54369 0.18502
 C405 C 0.56095 0.55663 0.19078
 C406 C 0.54517 0.57716 0.18948
 C407 C 0.55141 0.58281 0.20203
 C408 C 0.56238 0.57519 0.20893
 C409 C 0.56728 0.56225 0.20332
 C410 C 0.57875 0.55511 0.20981
 C411 C 0.58405 0.54238 0.20394
 C412 C 0.57734 0.53658 0.19171
 H413 H 0.53579 0.56475 0.16550
 H414 H 0.56362 0.52829 0.16807
 H415 H 0.53690 0.58307 0.18391
 H416 H 0.56717 0.57935 0.21868
 H417 H 0.58395 0.55984 0.21908
 H418 H 0.58119 0.52666 0.18721
 C419 C 0.67610 0.69531 0.17766
 C420 C 0.66317 0.70055 0.18297
 C421 C 0.65628 0.69382 0.19454
 C422 C 0.66276 0.68190 0.20105
 C423 C 0.67579 0.67659 0.19590
 C424 C 0.68244 0.68328 0.18411
 C425 C 0.68259 0.70175 0.16577
 C426 C 0.69538 0.69632 0.16015
 C427 C 0.70174 0.68440 0.16674
 C428 C 0.69533 0.67782 0.17863
 C429 C 0.70146 0.66570 0.18492
 C430 C 0.69494 0.65892 0.19669
 C431 C 0.68213 0.66452 0.20217
 H432 H 0.65846 0.70991 0.17805
 H433 H 0.65747 0.67651 0.20985
 H434 H 0.67743 0.71074 0.16063
 H435 H 0.71168 0.68022 0.16260
 H436 H 0.71114 0.66133 0.18038
 H437 H 0.67707 0.65951 0.21132
 C438 C 0.17440 0.05286 1.07432
 C439 C 0.16252 0.04609 1.06810
 C440 C 0.15497 0.05231 1.05654
 C441 C 0.16046 0.06517 1.05071
 C442 C 0.17257 0.07190 1.05668
 C443 C 0.17944 0.06583 1.06868
 C444 C 0.18109 0.04688 1.08633
 C445 C 0.19254 0.05388 1.09339
 C446 C 0.19771 0.06680 1.08738
 C447 C 0.19124 0.07278 1.07512
 C448 C 0.19611 0.08583 1.06946
 C449 C 0.18938 0.09197 1.05741
 C450 C 0.17766 0.08485 1.05107
 H451 H 0.15934 0.03580 1.07234
 H452 H 0.15495 0.07056 1.04205
 H453 H 0.17734 0.03655 1.08997
 H454 H 0.20625 0.07273 1.09254
 H455 H 0.20496 0.09134 1.07461
 H456 H 0.17250 0.08934 1.04169
 C457 C 0.56999 0.17641 0.54909
 C458 C 0.58255 0.18233 0.54343
 C459 C 0.58985 0.19340 0.55063
 C460 C 0.58412 0.19881 0.56344
 C461 C 0.57143 0.19314 0.56913
 C462 C 0.56439 0.18182 0.56197
 C463 C 0.56316 0.16489 0.54225
 C464 C 0.55095 0.15845 0.54828
 C465 C 0.54527 0.16412 0.56098
 C466 C 0.55188 0.17575 0.56783
 C467 C 0.54637 0.18115 0.58065
 C468 C 0.55331 0.19239 0.58792
 C469 C 0.56585 0.19834 0.58205
 H470 H 0.58672 0.17821 0.53345
 H471 H 0.58974 0.20719 0.56921
 H472 H 0.56750 0.16080 0.53233
 H473 H 0.53601 0.15914 0.56588
 H474 H 0.53662 0.17659 0.58496
 H475 H 0.57145 0.20682 0.58769
 C476 C 0.07020 0.55087 0.68149
 C477 C 0.08231 0.54465 0.68779
 C478 C 0.08878 0.55075 0.70002
 C479 C 0.08283 0.56317 0.70596
 C480 C 0.07078 0.56957 0.69971
 C481 C 0.06442 0.56340 0.68744
 C482 C 0.06391 0.54488 0.66918
 C483 C 0.05201 0.55133 0.66258
 C484 C 0.04629 0.56380 0.66866
 C485 C 0.05240 0.56985 0.68103
 C486 C 0.04679 0.58238 0.68693
 C487 C 0.05316 0.58875 0.69907
 C488 C 0.06514 0.58219 0.70542
 H489 H 0.08693 0.53525 0.68293
 H490 H 0.08756 0.56787 0.71549
 H491 H 0.06830 0.53515 0.66477
 H492 H 0.03731 0.56904 0.66355
 H493 H 0.03742 0.58716 0.68206
 H494 H 0.07033 0.58710 0.71460
 C495 C 0.68263 0.57193 0.04881
 C496 C 0.67106 0.56601 0.04118
 C497 C 0.66358 0.55410 0.04657
 C498 C 0.66821 0.54780 0.05947
 C499 C 0.67986 0.55349 0.06711
 C500 C 0.68700 0.56571 0.06187
 C501 C 0.68964 0.58419 0.04376
 C502 C 0.70076 0.59060 0.05174
 C503 C 0.70511 0.58426 0.06473
 C504 C 0.69835 0.57184 0.06981
 C505 C 0.70252 0.56566 0.08288
 C506 C 0.69553 0.55338 0.08813
 C507 C 0.68425 0.54735 0.08010
 H508 H 0.66776 0.57082 0.03114
 H509 H 0.66243 0.53876 0.06388
 H510 H 0.68633 0.58883 0.03363
 H511 H 0.71350 0.58920 0.07110
 H512 H 0.71102 0.57059 0.08911
 H513 H 0.67888 0.53781 0.08393
 C514 C 0.05939 0.67497 0.57259
 C515 C 0.05297 0.68190 0.58423
 C516 C 0.05885 0.69462 0.58978
 C517 C 0.07114 0.70044 0.58335
 C518 C 0.07783 0.69346 0.57196
 C519 C 0.07195 0.68068 0.56651
 C520 C 0.05358 0.66226 0.56716
 C521 C 0.06005 0.65515 0.55562
 C522 C 0.07270 0.66086 0.54970
 C523 C 0.07875 0.67354 0.55512
 C524 C 0.09160 0.67906 0.54955
 C525 C 0.09771 0.69164 0.55524
 C526 C 0.09052 0.69892 0.56620
 H527 H 0.04362 0.67717 0.58918
 H528 H 0.07564 0.71038 0.58733
 H529 H 0.04409 0.65777 0.57209
 H530 H 0.07778 0.65551 0.54079
 H531 H 0.09707 0.67334 0.54112
 H532 H 0.09492 0.70880 0.57041
 C533 C 0.55532 1.07667 0.67825
 C534 C 0.54939 1.07118 0.66554
 C535 C 0.55495 1.05878 0.65899
 C536 C 0.56680 1.05208 0.66567
 C537 C 0.57291 1.05754 0.67830
 C538 C 0.56708 1.06980 0.68469
 C539 C 0.54987 1.08916 0.68443
 C540 C 0.55588 1.09478 0.69710
 C541 C 0.56739 1.08762 0.70363
 C542 C 0.57312 1.07530 0.69742
 C543 C 0.58501 1.06859 0.70361
 C544 C 0.59120 1.05659 0.69711
 C545 C 0.58493 1.05102 0.68454
 H546 H 0.54081 1.07710 0.66053
 H547 H 0.57113 1.04227 0.66144
 H548 H 0.54115 1.09468 0.67917
 H549 H 0.57197 1.09168 0.71351
 H550 H 0.58953 1.07283 0.71346
 H551 H 0.58968 1.04188 0.67932
 C552 C 0.42403 0.32411 0.94072
 C553 C 0.43160 0.33584 0.94631
 C554 C 0.44370 0.34155 0.93921
 C555 C 0.44807 0.33489 0.92635
 C556 C 0.44055 0.32320 0.92064
 C557 C 0.42849 0.31778 0.92783
 C558 C 0.41187 0.31882 0.94772
 C559 C 0.40399 0.30733 0.94197
 C560 C 0.40860 0.30097 0.92914
 C561 C 0.42078 0.30612 0.92205
 C562 C 0.42525 0.29993 0.90914
 C563 C 0.43726 0.30532 0.90183
 C564 C 0.44485 0.31696 0.90771
 H565 H 0.42744 0.34087 0.95583
 H566 H 0.45762 0.33842 0.92086
 H567 H 0.40855 0.32364 0.95771
 H568 H 0.40250 0.29225 0.92448
 H569 H 0.41941 0.29086 0.90483
 H570 H 0.45392 0.32141 0.90204
 C571 C 0.92802 0.44876 0.32376
 C572 C 0.93521 0.45353 0.33609
 C573 C 0.94752 0.44646 0.34132
 C574 C 0.95253 0.43453 0.33356
 C575 C 0.94539 0.42964 0.32124
 C576 C 0.93309 0.43676 0.31631
 C577 C 0.91558 0.45563 0.31899
 C578 C 0.90803 0.45059 0.30692
 C579 C 0.91328 0.43870 0.29944
 C580 C 0.92574 0.43176 0.30405
 C581 C 0.93079 0.41972 0.29677
 C582 C 0.94300 0.41244 0.30169
 C583 C 0.95026 0.41755 0.31391
 H584 H 0.93059 0.46232 0.34194
 H585 H 0.96224 0.42915 0.33676
 H586 H 0.91176 0.46492 0.32470
 H587 H 0.90744 0.43456 0.29026
 H588 H 0.92519 0.41602 0.28726
 H589 H 0.95949 0.41188 0.31800
 C590 C 0.32499 0.94464 0.42735
 C591 C 0.31811 0.95094 0.41553
 C592 C 0.30569 0.94475 0.40955
 C593 C 0.30003 0.93229 0.41579
 C594 C 0.30663 0.92605 0.42777
 C595 C 0.31919 0.93220 0.43355
 C596 C 0.33767 0.95054 0.43291
 C597 C 0.34502 0.94410 0.44453
 C598 C 0.33878 0.93178 0.45082
 C599 C 0.32601 0.92584 0.44542
 C600 C 0.32008 0.91345 0.45157
 C601 C 0.30752 0.90723 0.44587
 C602 C 0.30095 0.91361 0.43390
 H603 H 0.32249 0.96065 0.41095
 H604 H 0.29063 0.92724 0.41116
 H605 H 0.34151 0.96041 0.42824
 H606 H 0.34414 0.92621 0.45945
 H607 H 0.32521 0.90870 0.46085
 H608 H 0.29151 0.90875 0.42915
 O609 O 0.21350 0.51940 0.75158
 O610 O 0.22074 0.51765 0.77559
 O611 O 0.24970 0.53650 0.72986
 O612 O 0.27273 0.53108 0.72681
 O613 O 0.22768 0.49963 0.71299
 O614 O 0.22798 0.47481 0.71887
 O615 O 0.28957 0.49693 0.76335
 O616 O 0.28638 0.52129 0.76056
 O617 O 0.25475 0.48137 0.78663
 O618 O 0.22875 0.48329 0.78449
 O619 O 0.26661 0.46066 0.74887
 O620 O 0.26348 0.46505 0.72352
 O621 O 0.28656 0.47901 0.74714
 O622 O 0.27850 0.48037 0.72104
 O623 O 0.25198 0.46193 0.76818
 O624 O 0.22570 0.46841 0.76909
 O625 O 0.27320 0.49699 0.78388
 O626 O 0.26908 0.52304 0.77945
 O627 O 0.21037 0.50146 0.73538
 O628 O 0.21444 0.47589 0.73675
 O629 O 0.24582 0.51569 0.71041
 O630 O 0.27202 0.51246 0.71357
 O631 O 0.23408 0.53766 0.74844
 O632 O 0.24017 0.53262 0.77397
 Zr633 Zr 0.23497 0.51729 0.75800
 O634 O 0.24822 0.50422 0.77070
 Zr635 Zr 0.25688 0.51525 0.73012
 O636 O 0.27130 0.50253 0.74181
 Zr637 Zr 0.23055 0.49155 0.73386
 O638 O 0.24395 0.47751 0.74529
 Zr639 Zr 0.26942 0.50658 0.76383
 O640 O 0.25641 0.52082 0.75199
 Zr641 Zr 0.24330 0.48261 0.76720
 O642 O 0.22872 0.49573 0.75590
 Zr643 Zr 0.26539 0.48100 0.73947
 O644 O 0.25173 0.49364 0.72653
 O645 O 0.23570 0.51298 0.73617
 O646 O 0.26461 0.48499 0.76136
 C647 C 0.20582 0.51219 0.74264
 C648 C 0.24063 0.54319 0.73767
 C649 C 0.23476 0.50891 0.70569
 C650 C 0.29410 0.48607 0.75633
 C651 C 0.26631 0.48748 0.79102
 C652 C 0.26087 0.45529 0.76014
 H653 H 0.24728 0.50689 0.78090
 H654 H 0.24089 0.46756 0.74346
 H655 H 0.22929 0.51923 0.73052
 H656 H 0.28117 0.50441 0.73851
 H657 H 0.28193 0.53048 0.75786
 H658 H 0.28062 0.52899 0.73358
 H659 H 0.22633 0.46134 0.76126
 H660 H 0.21082 0.47710 0.74662
 H661 H 0.27794 0.52229 0.78529
 H662 H 0.23289 0.54028 0.77371
 H663 H 0.25412 0.46027 0.72482
 H664 H 0.23691 0.47452 0.71323
 H665 H 0.21603 0.50816 0.77595
 H666 H 0.23044 0.49234 0.78971
 H667 H 0.26926 0.50364 0.70837
 H668 H 0.28607 0.48770 0.72217
 O669 O 0.21619 0.02407 0.24887
 O670 O 0.22027 0.02236 0.27374
 O671 O 0.25463 0.04175 0.23207
 O672 O 0.27804 0.03670 0.23225
 O673 O 0.23563 0.00448 0.21284
 O674 O 0.23596 -0.02052 0.21899
 O675 O 0.29072 0.00301 0.27065
 O676 O 0.28748 0.02743 0.26692
 O677 O 0.25389 -0.01307 0.28948
 O678 O 0.22787 -0.01087 0.28421
 O679 O 0.27034 -0.03362 0.25427
 O680 O 0.26988 -0.02950 0.22815
 O681 O 0.28993 -0.01513 0.25445
 O682 O 0.28546 -0.01451 0.22781
 O683 O 0.25276 -0.03260 0.27094
 O684 O 0.22693 -0.02629 0.26912
 O685 O 0.27202 0.00316 0.28877
 O686 O 0.26800 0.02906 0.28360
 O687 O 0.21556 0.00575 0.23283
 O688 O 0.21990 -0.01951 0.23459
 O689 O 0.25359 0.02094 0.21250
 O690 O 0.27909 0.01799 0.21871
 O691 O 0.23694 0.04270 0.24867
 O692 O 0.23929 0.03786 0.27463
 Zr693 Zr 0.23671 0.02237 0.25821
 O694 O 0.24864 0.00979 0.27265
 Zr695 Zr 0.26212 0.02062 0.23339
 O696 O 0.27517 0.00815 0.24686
 Zr697 Zr 0.23600 -0.00358 0.23395
 O698 O 0.24793 -0.01726 0.24731
 Zr699 Zr 0.27051 0.01245 0.26838
 O700 O 0.25870 0.02630 0.25493
 Zr701 Zr 0.24447 -0.01190 0.26889
 O702 O 0.23122 0.00069 0.25552
 Zr703 Zr 0.26989 -0.01352 0.24417
 O704 O 0.25790 -0.00113 0.22942
 O705 O 0.24035 0.01797 0.23671
 O706 O 0.26631 -0.00924 0.26568
 C707 C 0.20985 0.01647 0.23921
 C708 C 0.24467 0.04835 0.23880
 C709 C 0.24330 0.01400 0.20648
 C710 C 0.29617 -0.00794 0.26446
 C711 C 0.26476 -0.00664 0.29508
 C712 C 0.26295 -0.03907 0.26450
 H713 H 0.24645 0.01257 0.28262
 H714 H 0.24524 -0.02727 0.24526
 H715 H 0.23459 0.02409 0.23028
 H716 H 0.28536 0.01012 0.24481
 H717 H 0.28320 0.03651 0.26359
 H718 H 0.28548 0.03424 0.23939
 H719 H 0.22807 -0.03295 0.26098
 H720 H 0.21514 -0.01857 0.24400
 H721 H 0.27613 0.02856 0.29045
 H722 H 0.23186 0.04529 0.27339
 H723 H 0.26087 -0.03499 0.22902
 H724 H 0.24552 -0.02046 0.21446
 H725 H 0.21578 0.01277 0.27352
 H726 H 0.22941 -0.00218 0.29004
 H727 H 0.27732 0.00888 0.21362
 H728 H 0.29230 -0.00655 0.22932
 O729 O 0.53436 0.72525 0.24995
 O730 O 0.52919 0.72698 0.27409
 O731 O 0.49693 0.70504 0.23189
 O732 O 0.47364 0.70929 0.22975
 O733 O 0.51562 0.74246 0.21188
 O734 O 0.51410 0.76740 0.21683
 O735 O 0.45839 0.74331 0.26735
 O736 O 0.46263 0.71920 0.26481
 O737 O 0.49387 0.76193 0.28667
 O738 O 0.51989 0.76124 0.28253
 O739 O 0.47715 0.78014 0.24993
 O740 O 0.47827 0.77560 0.22466
 O741 O 0.45864 0.76063 0.25022
 O742 O 0.46456 0.75876 0.22338
 O743 O 0.49412 0.78080 0.26741
 O744 O 0.52055 0.77580 0.26658
 O745 O 0.47688 0.74448 0.28643
 O746 O 0.48195 0.71872 0.28195
 O747 O 0.53474 0.74243 0.23265
 O748 O 0.52921 0.76788 0.23374
 O749 O 0.49839 0.72525 0.21129
 O750 O 0.47216 0.72750 0.21646
 O751 O 0.51447 0.70542 0.24887
 O752 O 0.51062 0.71112 0.27469
 Zr753 Zr 0.51337 0.72607 0.25780
 O754 O 0.50059 0.73879 0.27114
 Zr755 Zr 0.48889 0.72592 0.23175
 O756 O 0.47482 0.73803 0.24431
 Zr757 Zr 0.51396 0.75115 0.23257
 O758 O 0.50075 0.76476 0.24462
 Zr759 Zr 0.47903 0.73483 0.26620
 O760 O 0.49172 0.72108 0.25366
 Zr761 Zr 0.50377 0.76053 0.26652
 O762 O 0.51804 0.74787 0.25449
 Zr763 Zr 0.47910 0.75977 0.24083
 O764 O 0.49234 0.74764 0.22710
 O765 O 0.51039 0.72955 0.23598
 O766 O 0.48219 0.75659 0.26267
 C767 C 0.54069 0.73248 0.24008
 C768 C 0.50704 0.69910 0.23909
 C769 C 0.50863 0.73242 0.20553
 C770 C 0.45252 0.75357 0.26036
 C771 C 0.48356 0.75490 0.29247
 C772 C 0.48376 0.78638 0.26029
 H773 H 0.50267 0.73654 0.28130
 H774 H 0.50295 0.77481 0.24222
 H775 H 0.51665 0.72343 0.23011
 H776 H 0.46483 0.73544 0.24193
 H777 H 0.46729 0.71020 0.26188
 H778 H 0.46673 0.71059 0.23761
 H779 H 0.51902 0.78229 0.25835
 H780 H 0.53399 0.76701 0.24319
 H781 H 0.47369 0.71903 0.28857
 H782 H 0.51815 0.70374 0.27395
 H783 H 0.48766 0.78051 0.22457
 H784 H 0.50465 0.76698 0.21201
 H785 H 0.53286 0.73691 0.27426
 H786 H 0.51885 0.75259 0.28854
 H787 H 0.47427 0.73596 0.21045
 H788 H 0.45731 0.75135 0.22558
 O789 O -0.00171 0.71238 0.72572
 O790 O -0.02609 0.71613 0.72943
 O791 O 0.01319 0.74996 0.70498
 O792 O 0.01317 0.77361 0.70894
 O793 O 0.03627 0.73322 0.74096
 O794 O 0.03284 0.73419 0.76626
 O795 O -0.02175 0.78713 0.74564
 O796 O -0.02091 0.78277 0.72128
 O797 O -0.03824 0.75032 0.76517
 O798 O -0.03256 0.72488 0.76426
 O799 O -0.00093 0.76909 0.78155
 O800 O 0.02391 0.76939 0.77511
 O801 O -0.00369 0.78773 0.76208
 O802 O 0.02312 0.78328 0.75850
 O803 O -0.01788 0.75169 0.78284
 O804 O -0.01560 0.72517 0.77777
 O805 O -0.03957 0.76799 0.74851
 O806 O -0.03717 0.76285 0.72222
 O807 O 0.01634 0.71269 0.74224
 O808 O 0.01700 0.71830 0.76770
 O809 O 0.03453 0.75019 0.72360
 O810 O 0.02833 0.77590 0.72632
 O811 O -0.00332 0.73208 0.70614
 O812 O -0.02873 0.73458 0.71352
 Zr813 Zr -0.01079 0.73276 0.72742
 O814 O -0.02386 0.74480 0.74112
 Zr815 Zr 0.01379 0.75850 0.72577
 O816 O 0.00147 0.77187 0.73890
 Zr817 Zr 0.01610 0.73351 0.75097
 O818 O 0.00431 0.74601 0.76547
 Zr819 Zr -0.02030 0.76655 0.73708
 O820 O -0.00818 0.75453 0.72233
 Zr821 Zr -0.01761 0.74185 0.76256
 O822 O -0.00573 0.72828 0.74902
 Zr823 Zr 0.00665 0.76779 0.76043
 O824 O 0.02011 0.75535 0.74722
 O825 O 0.01098 0.73687 0.72959
 O826 O -0.01512 0.76356 0.75861
 C827 C 0.00875 0.70648 0.73247
 C828 C 0.00606 0.73958 0.69940
 C829 C 0.04141 0.74044 0.73041
 C830 C -0.01446 0.79335 0.75556
 C831 C -0.04473 0.76074 0.75901
 C832 C -0.01072 0.76215 0.78824
 H833 H -0.03401 0.74221 0.73951
 H834 H 0.00748 0.74394 0.77537
 H835 H 0.01679 0.73092 0.72311
 H836 H 0.00317 0.78196 0.73624
 H837 H -0.01842 0.77818 0.71207
 H838 H 0.00583 0.78070 0.71150
 H839 H -0.00740 0.72748 0.78411
 H840 H 0.00769 0.71323 0.76765
 H841 H -0.04412 0.77075 0.72318
 H842 H -0.02819 0.72697 0.70615
 H843 H 0.02467 0.76011 0.78011
 H844 H 0.03709 0.74387 0.76566
 H845 H -0.02492 0.71209 0.73917
 H846 H -0.03886 0.72523 0.75571
 H847 H 0.03479 0.77432 0.73460
 H848 H 0.02014 0.79026 0.75112
 O849 O -0.04349 -0.00401 -0.01073
 O850 O -0.03954 0.02039 -0.00832
 O851 O -0.00747 -0.01900 -0.03416
 O852 O 0.01642 -0.01884 -0.03191
 O853 O -0.02124 -0.04120 0.00374
 O854 O -0.01804 -0.03691 0.02877
 O855 O 0.03269 0.01771 0.00257
 O856 O 0.02647 0.01581 -0.02133
 O857 O -0.00266 0.03431 0.02411
 O858 O -0.02809 0.02803 0.02552
 O859 O 0.01793 -0.00195 0.04027
 O860 O 0.01767 -0.02702 0.03475
 O861 O 0.03479 0.00009 0.01924
 O862 O 0.03008 -0.02681 0.01704
 O863 O 0.00054 0.01473 0.04234
 O864 O -0.02630 0.01181 0.03963
 O865 O 0.01352 0.03539 0.00605
 O866 O 0.00646 0.03171 -0.01960
 O867 O -0.04170 -0.02151 0.00615
 O868 O -0.03392 -0.02131 0.03101
 O869 O -0.00577 -0.03980 -0.01494
 O870 O 0.02012 -0.03322 -0.01434
 O871 O -0.02540 -0.00285 -0.03205
 O872 O -0.02249 0.02274 -0.02561
 Zr873 Zr -0.02302 0.00527 -0.01109
 O874 O -0.00993 0.01896 0.00120
 Zr875 Zr 0.00266 -0.01893 -0.01400
 O876 O 0.01702 -0.00600 -0.00232
 Zr877 Zr -0.02016 -0.02072 0.01311
 O878 O -0.00656 -0.00825 0.02624
 Zr879 Zr 0.01147 0.01559 -0.00441
 O880 O -0.00169 0.00280 -0.01779
 Zr881 Zr -0.01107 0.01346 0.02298
 O882 O -0.02565 0.00091 0.01092
 Zr883 Zr 0.01478 -0.01044 0.01962
 O884 O 0.00135 -0.02453 0.00781
 O885 O -0.01865 -0.01632 -0.00862
 O886 O 0.01031 0.01117 0.01744
 C887 C -0.04880 -0.01424 -0.00320
 C888 C -0.01829 -0.01217 -0.03916
 C889 C -0.01489 -0.04658 -0.00719
 C890 C 0.03980 0.01075 0.01208
 C891 C 0.00702 0.04083 0.01683
 C892 C 0.01153 0.00802 0.04712
 H893 H -0.01274 0.02898 -0.00054
 H894 H -0.00778 -0.01106 0.03637
 H895 H -0.02513 -0.02238 -0.01446
 H896 H 0.02688 -0.00765 -0.00571
 H897 H 0.02120 0.01290 -0.03009
 H898 H 0.02360 -0.01124 -0.03021
 H899 H -0.02340 0.00388 0.04600
 H900 H -0.03889 -0.01201 0.03122
 H901 H 0.01439 0.03879 -0.01954
 H902 H -0.03067 0.02183 -0.03237
 H903 H 0.00882 -0.02771 0.04048
 H904 H -0.00839 -0.04100 0.02752
 H905 H -0.04270 0.01961 0.00177
 H906 H -0.02840 0.03414 0.01687
 H907 H 0.01921 -0.03943 -0.00579
 H908 H 0.03635 -0.02411 0.00896
 O909 O -0.03795 0.50064 0.48376
 O910 O -0.03080 0.52431 0.48611
 O911 O -0.00262 0.48012 0.46357
 O912 O 0.02071 0.47697 0.46769
 O913 O -0.02209 0.46109 0.50089
 O914 O -0.02033 0.46592 0.52596
 O915 O 0.03930 0.51186 0.50271
 O916 O 0.03469 0.51005 0.47826
 O917 O 0.00567 0.53396 0.52109
 O918 O -0.02062 0.53164 0.52029
 O919 O 0.01937 0.49597 0.53925
 O920 O 0.01545 0.47060 0.53423
 O921 O 0.03783 0.49442 0.51964
 O922 O 0.02956 0.46874 0.51804
 O923 O 0.00376 0.51445 0.53998
 O924 O -0.02254 0.51583 0.53477
 O925 O 0.02298 0.53205 0.50420
 O926 O 0.01720 0.52881 0.47821
 O927 O -0.03971 0.48336 0.50088
 O928 O -0.03410 0.48356 0.52634
 O929 O -0.00534 0.45982 0.48338
 O930 O 0.02100 0.46272 0.48571
 O931 O -0.01818 0.49869 0.46396
 O932 O -0.01236 0.52385 0.47018
 Zr933 Zr -0.01638 0.50700 0.48488
 O934 O -0.00237 0.51912 0.49783
 Zr935 Zr 0.00580 0.47935 0.48445
 O936 O 0.02094 0.49046 0.49696
 Zr937 Zr -0.01896 0.48161 0.50972
 O938 O -0.00477 0.49252 0.52360
 Zr939 Zr 0.01866 0.51253 0.49399
 O940 O 0.00482 0.50135 0.47991
 Zr941 Zr -0.00588 0.51458 0.51955
 O942 O -0.02118 0.50374 0.50670
 Zr943 Zr 0.01646 0.48709 0.51874
 O944 O 0.00211 0.47466 0.50619
 O945 O -0.01526 0.48506 0.48809
 O946 O 0.01527 0.50906 0.51577
 C947 C -0.04508 0.49126 0.49091
 C948 C -0.01189 0.48831 0.45759
 C949 C -0.01576 0.45453 0.49061
 C950 C 0.04470 0.50418 0.51277
 C951 C 0.01676 0.53868 0.51444
 C952 C 0.01353 0.50660 0.54560
 H953 H -0.00352 0.52939 0.49567
 H954 H -0.00718 0.49023 0.53364
 H955 H -0.02202 0.47974 0.48186
 H956 H 0.03068 0.48733 0.49439
 H957 H 0.02967 0.50775 0.46916
 H958 H 0.02880 0.48348 0.46983
 H959 H -0.02189 0.50736 0.54108
 H960 H -0.03788 0.49340 0.52575
 H961 H 0.02609 0.53462 0.47870
 H962 H -0.02005 0.52387 0.46281
 H963 H 0.00675 0.47209 0.54000
 H964 H -0.01120 0.46063 0.52575
 H965 H -0.03461 0.52437 0.49599
 H966 H -0.01916 0.53756 0.51163
 H967 H 0.01872 0.45707 0.49439
 H968 H 0.03624 0.46989 0.50993
 O969 O 0.54286 0.01337 0.49998
 O970 O 0.53778 0.00914 0.47570
 O971 O 0.50596 0.03417 0.51604
 O972 O 0.48244 0.02997 0.51770
 O973 O 0.52413 -0.00166 0.53874
 O974 O 0.52275 -0.02683 0.53562
 O975 O 0.46698 -0.00752 0.48304
 O976 O 0.47109 0.01697 0.48389
 O977 O 0.50233 -0.02691 0.46560
 O978 O 0.52822 -0.02543 0.46950
 O979 O 0.48600 -0.04248 0.50344
 O980 O 0.48728 -0.03559 0.52860
 O981 O 0.46713 -0.02317 0.50170
 O982 O 0.47299 -0.01958 0.52800
 O983 O 0.50309 -0.04410 0.48632
 O984 O 0.52943 -0.03842 0.48674
 O985 O 0.48531 -0.00973 0.46434
 O986 O 0.49032 0.01644 0.46683
 O987 O 0.54338 -0.00298 0.51808
 O988 O 0.53779 -0.02838 0.51909
 O989 O 0.50708 0.01554 0.53798
 O990 O 0.48095 0.01283 0.53280
 O991 O 0.52311 0.03261 0.49893
 O992 O 0.51928 0.02501 0.47372
 Zr993 Zr 0.52197 0.01137 0.49171
 O994 O 0.50911 -0.00242 0.47926
 Zr995 Zr 0.49758 0.01330 0.51749
 O996 O 0.48347 0.00002 0.50582
 Zr997 Zr 0.52256 -0.01177 0.51873
 O998 O 0.50938 -0.02637 0.50765
 Zr999 Zr 0.48754 0.00154 0.48376
 O1000 O 0.50032 0.01640 0.49527
 Zr1001 Zr 0.51239 -0.02367 0.48553
 O1002 O 0.52669 -0.01005 0.49669
 Zr1003 Zr 0.48773 -0.02138 0.51095
 O1004 O 0.50097 -0.00801 0.52376
 O1005 O 0.51903 0.00949 0.51370
 O1006 O 0.49079 -0.01983 0.48896
 C1007 C 0.54923 0.00678 0.51029
 C1008 C 0.51600 0.03959 0.50834
 C1009 C 0.51725 0.00876 0.54434
 C1010 C 0.46103 -0.01713 0.49089
 C1011 C 0.49192 -0.02057 0.45924
 C1012 C 0.49285 -0.04939 0.49379
 H1013 H 0.51112 -0.00091 0.46897
 H1014 H 0.51166 -0.03617 0.51083
 H1015 H 0.52529 0.01607 0.51920
 H1016 H 0.47346 0.00264 0.50792
 H1017 H 0.47572 0.02623 0.48616
 H1018 H 0.47510 0.02753 0.51043
 H1019 H 0.52798 -0.04437 0.49538
 H1020 H 0.54265 -0.02818 0.50970
 H1021 H 0.48204 0.01546 0.46021
 H1022 H 0.52701 0.03231 0.47384
 H1023 H 0.49628 -0.04109 0.52849
 H1024 H 0.51325 -0.02629 0.54022
 H1025 H 0.54181 -0.00055 0.47678
 H1026 H 0.52742 -0.01700 0.46316
 H1027 H 0.48283 0.00460 0.53920
 H1028 H 0.46626 -0.01181 0.52561
 O1029 O 0.54174 0.51301 -0.00014
 O1030 O 0.53580 0.51079 -0.02444
 O1031 O 0.50553 0.53268 0.01882
 O1032 O 0.48187 0.52857 0.01998
 O1033 O 0.52392 0.49557 0.03830
 O1034 O 0.52255 0.47064 0.03345
 O1035 O 0.46539 0.49317 -0.01618
 O1036 O 0.46949 0.51756 -0.01381
 O1037 O 0.50100 0.47579 -0.03624
 O1038 O 0.52681 0.47654 -0.03220
 O1039 O 0.48518 0.45697 0.00129
 O1040 O 0.48723 0.46237 0.02692
 O1041 O 0.46634 0.47607 0.00112
 O1042 O 0.47255 0.47804 0.02748
 O1043 O 0.50115 0.45693 -0.01696
 O1044 O 0.52775 0.46204 -0.01624
 O1045 O 0.48322 0.49221 -0.03547
 O1046 O 0.48820 0.51820 -0.03147
 O1047 O 0.54279 0.49556 0.01686
 O1048 O 0.53723 0.47029 0.01659
 O1049 O 0.50654 0.51243 0.03914
 O1050 O 0.48055 0.51046 0.03428
 O1051 O 0.52209 0.53233 0.00107
 O1052 O 0.51726 0.52667 -0.02452
 Zr1053 Zr 0.52058 0.51172 -0.00774
 O1054 O 0.50744 0.49875 -0.02076
 Zr1055 Zr 0.49687 0.51183 0.01868
 O1056 O 0.48251 0.49921 0.00656
 Zr1057 Zr 0.52195 0.48681 0.01764
 O1058 O 0.50858 0.47290 0.00588
 Zr1059 Zr 0.48597 0.50225 -0.01545
 O1060 O 0.49901 0.51641 -0.00333
 Zr1061 Zr 0.51098 0.47715 -0.01607
 O1062 O 0.52549 0.49004 -0.00435
 Zr1063 Zr 0.48703 0.47755 0.01011
 O1064 O 0.50049 0.49016 0.02342
 O1065 O 0.51825 0.50833 0.01415
 O1066 O 0.48948 0.48061 -0.01181
 C1067 C 0.54845 0.50568 0.00941
 C1068 C 0.51542 0.53859 0.01128
 C1069 C 0.51687 0.50535 0.04481
 C1070 C 0.45985 0.48282 -0.00900
 C1071 C 0.49021 0.48225 -0.04176
 C1072 C 0.49131 0.45100 -0.00942
 H1073 H 0.50924 0.50100 -0.03095
 H1074 H 0.51093 0.46291 0.00828
 H1075 H 0.52469 0.51445 0.01997
 H1076 H 0.47255 0.50160 0.00910
 H1077 H 0.47416 0.52669 -0.01112
 H1078 H 0.47404 0.52621 0.01321
 H1079 H 0.52614 0.45526 -0.00826
 H1080 H 0.54143 0.47074 0.00689
 H1081 H 0.47972 0.51760 -0.03788
 H1082 H 0.52497 0.53399 -0.02411
 H1083 H 0.49604 0.45666 0.02596
 H1084 H 0.51318 0.47086 0.03833
 H1085 H 0.54009 0.50116 -0.02408
 H1086 H 0.52592 0.48536 -0.03797
 H1087 H 0.48223 0.50157 0.03978
 H1088 H 0.46571 0.48587 0.02573
 O1089 O 0.76690 0.29347 0.50247
 O1090 O 0.76460 0.28875 0.52694
 O1091 O 0.78643 0.25626 0.48534
 O1092 O 0.78200 0.23269 0.48480
 O1093 O 0.74925 0.27397 0.46455
 O1094 O 0.72438 0.27331 0.46943
 O1095 O 0.74638 0.21840 0.52167
 O1096 O 0.77084 0.22204 0.51916
 O1097 O 0.72910 0.25471 0.53989
 O1098 O 0.73015 0.28031 0.53489
 O1099 O 0.71052 0.23719 0.50326
 O1100 O 0.71571 0.23825 0.47749
 O1101 O 0.72971 0.21832 0.50381
 O1102 O 0.73144 0.22366 0.47736
 O1103 O 0.71017 0.25456 0.52022
 O1104 O 0.71581 0.28081 0.51877
 O1105 O 0.74572 0.23709 0.54006
 O1106 O 0.77175 0.24159 0.53592
 O1107 O 0.74975 0.29391 0.48505
 O1108 O 0.72420 0.28867 0.48577
 O1109 O 0.76652 0.25697 0.46485
 O1110 O 0.76385 0.23110 0.47048
 O1111 O 0.78614 0.27375 0.50222
 O1112 O 0.78032 0.27013 0.52798
 Zr1113 Zr 0.76544 0.27277 0.51093
 O1114 O 0.75229 0.26040 0.52437
 Zr1115 Zr 0.76545 0.24794 0.48552
 O1116 O 0.75271 0.23426 0.49813
 Zr1117 Zr 0.74058 0.27321 0.48530
 O1118 O 0.72653 0.26045 0.49749
 Zr1119 Zr 0.75570 0.23874 0.51998
 O1120 O 0.77002 0.25105 0.50744
 Zr1121 Zr 0.73068 0.26385 0.51937
 O1122 O 0.74377 0.27769 0.50716
 Zr1123 Zr 0.73105 0.23872 0.49426
 O1124 O 0.74378 0.25149 0.48047
 O1125 O 0.76210 0.26949 0.48914
 O1126 O 0.73404 0.24217 0.51607
 C1127 C 0.75988 0.29978 0.49243
 C1128 C 0.79240 0.26649 0.49241
 C1129 C 0.75934 0.26688 0.45859
 C1130 C 0.73627 0.21241 0.51442
 C1131 C 0.73568 0.24428 0.54595
 C1132 C 0.70434 0.24419 0.51330
 H1133 H 0.75453 0.26264 0.53450
 H1134 H 0.71654 0.26276 0.49491
 H1135 H 0.76833 0.27558 0.48313
 H1136 H 0.75507 0.22420 0.49604
 H1137 H 0.78003 0.22646 0.51627
 H1138 H 0.77964 0.22527 0.49195
 H1139 H 0.70932 0.27920 0.51052
 H1140 H 0.72501 0.29357 0.49514
 H1141 H 0.77110 0.23345 0.54269
 H1142 H 0.78774 0.27770 0.52726
 H1143 H 0.70992 0.24702 0.47820
 H1144 H 0.72423 0.26362 0.46519
 H1145 H 0.75494 0.29299 0.52642
 H1146 H 0.73894 0.27957 0.54078
 H1147 H 0.75517 0.23288 0.46464
 H1148 H 0.73945 0.21704 0.47920
 O1149 O 0.76974 0.79033 0.00435
 O1150 O 0.76814 0.78357 0.02841
 O1151 O 0.78944 0.75447 -0.01595
 O1152 O 0.78511 0.73095 -0.01819
 O1153 O 0.75175 0.77339 -0.03466
 O1154 O 0.72682 0.77180 -0.02931
 O1155 O 0.75063 0.71350 0.01788
 O1156 O 0.77502 0.71781 0.01516
 O1157 O 0.73329 0.74798 0.03945
 O1158 O 0.73439 0.77417 0.03652
 O1159 O 0.71392 0.73357 0.00207
 O1160 O 0.71872 0.73672 -0.02380
 O1161 O 0.73310 0.71495 0.00095
 O1162 O 0.73422 0.72188 -0.02507
 O1163 O 0.71395 0.74967 0.02026
 O1164 O 0.71945 0.77576 0.02107
 O1165 O 0.75004 0.73059 0.03772
 O1166 O 0.77592 0.73584 0.03356
 O1167 O 0.75230 0.79158 -0.01274
 O1168 O 0.72697 0.78617 -0.01207
 O1169 O 0.76917 0.75661 -0.03595
 O1170 O 0.76674 0.73045 -0.03243
 O1171 O 0.78930 0.77081 0.00206
 O1172 O 0.78416 0.76521 0.02757
 Zr1173 Zr 0.76882 0.76892 0.01115
 O1174 O 0.75618 0.75532 0.02391
 Zr1175 Zr 0.76850 0.74601 -0.01606
 O1176 O 0.75608 0.73129 -0.00431
 Zr1177 Zr 0.74341 0.77088 -0.01386
 O1178 O 0.72974 0.75723 -0.00223
 Zr1179 Zr 0.75963 0.73409 0.01772
 O1180 O 0.77352 0.74756 0.00592
 Zr1181 Zr 0.73444 0.75896 0.01975
 O1182 O 0.74703 0.77380 0.00821
 Zr1183 Zr 0.73428 0.73587 -0.00726
 O1184 O 0.74668 0.74965 -0.02036
 O1185 O 0.76504 0.76719 -0.01075
 O1186 O 0.73785 0.73765 0.01466
 C1187 C 0.76239 0.79717 -0.00510
 C1188 C 0.79545 0.76425 -0.00829
 C1189 C 0.76185 0.76692 -0.04130
 C1190 C 0.74010 0.70818 0.01071
 C1191 C 0.74002 0.73708 0.04440
 C1192 C 0.70795 0.73984 0.01271
 H1193 H 0.75864 0.75675 0.03413
 H1194 H 0.71969 0.75968 -0.00438
 H1195 H 0.77109 0.77381 -0.01639
 H1196 H 0.75842 0.72144 -0.00724
 H1197 H 0.78408 0.72264 0.01249
 H1198 H 0.78271 0.72281 -0.01188
 H1199 H 0.71303 0.77506 0.01264
 H1200 H 0.72773 0.79020 -0.00229
 H1201 H 0.77553 0.72713 0.03961
 H1202 H 0.79144 0.77295 0.02730
 H1203 H 0.71272 0.74521 -0.02211
 H1204 H 0.72698 0.76258 -0.03450
 H1205 H 0.75839 0.78763 0.02848
 H1206 H 0.74306 0.77263 0.04244
 H1207 H 0.75776 0.73243 -0.03772
 H1208 H 0.74246 0.71538 -0.02402
 O1209 O 1.03864 0.23832 0.24186
 O1210 O 1.03418 0.23947 0.26645
 O1211 O 1.00062 0.22002 0.22392
 O1212 O 0.97707 0.22456 0.22396
 O1213 O 1.01908 0.25755 0.20522
 O1214 O 1.01853 0.28237 0.21123
 O1215 O 0.96363 0.25827 0.26217
 O1216 O 0.96715 0.23392 0.25868
 O1217 O 1.00048 0.27468 0.28142
 O1218 O 1.02613 0.27340 0.27654
 O1219 O 0.98337 0.29496 0.24575
 O1220 O 0.98408 0.29087 0.21975
 O1221 O 0.96419 0.27620 0.24570
 O1222 O 0.96890 0.27545 0.21910
 O1223 O 1.00089 0.29434 0.26270
 O1224 O 1.02710 0.28832 0.26100
 O1225 O 0.98239 0.25839 0.28067
 O1226 O 0.98666 0.23251 0.27554
 O1227 O 1.03886 0.25622 0.22529
 O1228 O 1.03432 0.28160 0.22739
 O1229 O 1.00140 0.24079 0.20452
 O1230 O 0.97568 0.24330 0.21042
 O1231 O 1.01807 0.21908 0.24097
 O1232 O 1.01523 0.22398 0.26699
 Zr1233 Zr 1.01791 0.23946 0.25057
 O1234 O 1.00581 0.25203 0.26473
 Zr1235 Zr 0.99268 0.24093 0.22530
 O1236 O 0.97937 0.25317 0.23859
 Zr1237 Zr 1.01844 0.26547 0.22627
 O1238 O 1.00618 0.27903 0.23926
 Zr1239 Zr 0.98398 0.24907 0.26024
 O1240 O 0.99597 0.23532 0.24695
 Zr1241 Zr 1.00967 0.27378 0.26088
 O1242 O 1.02314 0.26122 0.24790
 Zr1243 Zr 0.98432 0.27488 0.23580
 O1244 O 0.99662 0.26271 0.22131
 O1245 O 1.01437 0.24386 0.22902
 O1246 O 0.98787 0.27080 0.25742
 C1247 C 1.04479 0.24579 0.23203
 C1248 C 1.01058 0.21347 0.23081
 C1249 C 1.01166 0.24791 0.19872
 C1250 C 0.95803 0.26904 0.25572
 C1251 C 0.98976 0.26814 0.28704
 C1252 C 0.99059 0.30058 0.25606
 H1253 H 1.00804 0.24934 0.27475
 H1254 H 1.00871 0.28907 0.23718
 H1255 H 1.02027 0.23784 0.22269
 H1256 H 0.96922 0.25103 0.23639
 H1257 H 0.97151 0.22490 0.25539
 H1258 H 0.96965 0.22680 0.23111
 H1259 H 1.02556 0.29525 0.25315
 H1260 H 1.03927 0.28037 0.23671
 H1261 H 0.97854 0.23295 0.28232
 H1262 H 1.02262 0.21651 0.26585
 H1263 H 0.99303 0.29647 0.22068
 H1264 H 1.00893 0.28239 0.20669
 H1265 H 1.03844 0.24916 0.26650
 H1266 H 1.02522 0.26435 0.28194
 H1267 H 0.97747 0.25231 0.20515
 H1268 H 0.96206 0.26751 0.22067
 O1269 O 0.76621 0.96654 0.75785
 O1270 O 0.76400 0.97006 0.73316
 O1271 O 0.78850 1.00351 0.77291
 O1272 O 0.78576 1.02721 0.77227
 O1273 O 0.75032 0.98920 0.79460
 O1274 O 0.72540 0.99102 0.78937
 O1275 O 0.75101 1.04166 0.73468
 O1276 O 0.77522 1.03662 0.73747
 O1277 O 0.73056 1.00626 0.71829
 O1278 O 0.73051 0.98038 0.72426
 O1279 O 0.71395 1.02594 0.75375
 O1280 O 0.71928 1.02588 0.77957
 O1281 O 0.73437 1.04353 0.75228
 O1282 O 0.73597 1.03957 0.77897
 O1283 O 0.71212 1.00770 0.73781
 O1284 O 0.71605 0.98142 0.74024
 O1285 O 0.74898 1.02215 0.71715
 O1286 O 0.77454 1.01625 0.72169
 O1287 O 0.74931 0.96815 0.77527
 O1288 O 0.72425 0.97465 0.77404
 O1289 O 0.76869 1.00515 0.79336
 O1290 O 0.76795 1.03067 0.78632
 O1291 O 0.78688 0.98509 0.75710
 O1292 O 0.78103 0.98759 0.73113
 Zr1293 Zr 0.76617 0.98682 0.74825
 O1294 O 0.75385 0.99929 0.73406
 Zr1295 Zr 0.76815 1.01296 0.77224
 O1296 O 0.75630 1.02668 0.75891
 Zr1297 Zr 0.74157 0.98926 0.77373
 O1298 O 0.72834 1.00212 0.76075
 Zr1299 Zr 0.75886 1.02089 0.73736
 O1300 O 0.77234 1.00838 0.75058
 Zr1301 Zr 0.73206 0.99745 0.73906
 O1302 O 0.74421 0.98350 0.75213
 Zr1303 Zr 0.73440 1.02367 0.76291
 O1304 O 0.74634 1.01096 0.77741
 O1305 O 0.76327 0.99149 0.76981
 O1306 O 0.73703 1.01899 0.74132
 C1307 C 0.75892 0.96126 0.76827
 C1308 C 0.79372 0.99260 0.76646
 C1309 C 0.76089 0.99610 0.80019
 C1310 C 0.74132 1.04854 0.74150
 C1311 C 0.73802 1.01580 0.71172
 C1312 C 0.70714 1.01878 0.74413
 H1313 H 0.75583 0.99646 0.72406
 H1314 H 0.71824 1.00053 0.76339
 H1315 H 0.76912 0.98540 0.77620
 H1316 H 0.75937 1.03668 0.76050
 H1317 H 0.78410 1.03176 0.74056
 H1318 H 0.78388 1.03439 0.76473
 H1319 H 0.71003 0.98349 0.74866
 H1320 H 0.72457 0.96934 0.76488
 H1321 H 0.77453 1.02411 0.71456
 H1322 H 0.78790 0.97964 0.73231
 H1323 H 0.71284 1.01748 0.77923
 H1324 H 0.72611 1.00085 0.79322
 H1325 H 0.75393 0.96677 0.73359
 H1326 H 0.73891 0.98090 0.71788
 H1327 H 0.75916 1.02982 0.79214
 H1328 H 0.74438 1.04563 0.77680
 O1329 O 0.74557 0.53735 0.23130
 O1330 O 0.77029 0.53493 0.23401
 O1331 O 0.73206 0.49970 0.20930
 O1332 O 0.73416 0.47598 0.21224
 O1333 O 0.70965 0.51303 0.24701
 O1334 O 0.71466 0.51155 0.27214
 O1335 O 0.77125 0.46314 0.24776
 O1336 O 0.76847 0.46792 0.22346
 O1337 O 0.78628 0.49975 0.26764
 O1338 O 0.77909 0.52524 0.26747
 O1339 O 0.75086 0.47885 0.28479
 O1340 O 0.72534 0.47741 0.27859
 O1341 O 0.75396 0.46103 0.26473
 O1342 O 0.72721 0.46332 0.26249
 O1343 O 0.76687 0.49714 0.28601
 O1344 O 0.76329 0.52328 0.28204
 O1345 O 0.78809 0.48364 0.24955
 O1346 O 0.78346 0.48892 0.22385
 O1347 O 0.72805 0.53484 0.24801
 O1348 O 0.72918 0.52870 0.27314
 O1349 O 0.71168 0.49703 0.22884
 O1350 O 0.71949 0.47203 0.22995
 O1351 O 0.74778 0.51829 0.21069
 O1352 O 0.77343 0.51756 0.21723
 Zr1353 Zr 0.75598 0.51745 0.23172
 O1354 O 0.77041 0.50558 0.24431
 Zr1355 Zr 0.73303 0.49023 0.22976
 O1356 O 0.74663 0.47716 0.24206
 Zr1357 Zr 0.73034 0.51394 0.25606
 O1358 O 0.74366 0.50185 0.26965
 Zr1359 Zr 0.76793 0.48380 0.23959
 O1360 O 0.75451 0.49575 0.22581
 Zr1361 Zr 0.76516 0.50739 0.26605
 O1362 O 0.75169 0.52067 0.25362
 Zr1363 Zr 0.74232 0.48019 0.26393
 O1364 O 0.72754 0.49210 0.25154
 O1365 O 0.73461 0.51183 0.23438
 O1366 O 0.76373 0.48573 0.26141
 C1367 C 0.73486 0.54209 0.23847
 C1368 C 0.73864 0.51052 0.20388
 C1369 C 0.70446 0.50583 0.23644
 C1370 C 0.76481 0.45628 0.25781
 C1371 C 0.79324 0.49050 0.26032
 C1372 C 0.76048 0.48622 0.29138
 H1373 H 0.78030 0.50884 0.24236
 H1374 H 0.74084 0.50342 0.27972
 H1375 H 0.72811 0.51760 0.22833
 H1376 H 0.74544 0.46708 0.23916
 H1377 H 0.76521 0.47255 0.21448
 H1378 H 0.74122 0.46858 0.21480
 H1379 H 0.75493 0.52083 0.28803
 H1380 H 0.73826 0.53419 0.27306
 H1381 H 0.79085 0.48137 0.22401
 H1382 H 0.77209 0.52545 0.21025
 H1383 H 0.72518 0.48588 0.28490
 H1384 H 0.71089 0.50169 0.27126
 H1385 H 0.76935 0.53841 0.24398
 H1386 H 0.78548 0.52505 0.25906
 H1387 H 0.71394 0.47242 0.23895
 H1388 H 0.72977 0.45733 0.25417
 O1389 O 0.49796 0.21548 0.72639
 O1390 O 0.47373 0.22083 0.72640
 O1391 O 0.51743 0.25238 0.70690
 O1392 O 0.51897 0.27581 0.71097
 O1393 O 0.53498 0.23477 0.74622
 O1394 O 0.52818 0.23618 0.77072
 O1395 O 0.47972 0.29158 0.74282
 O1396 O 0.48396 0.28708 0.71864
 O1397 O 0.45908 0.25641 0.75999
 O1398 O 0.46321 0.23055 0.75995
 O1399 O 0.49509 0.27287 0.78106
 O1400 O 0.52065 0.27187 0.77759
 O1401 O 0.49578 0.29159 0.76122
 O1402 O 0.52238 0.28583 0.76125
 O1403 O 0.47712 0.25645 0.78028
 O1404 O 0.47818 0.22999 0.77557
 O1405 O 0.46084 0.27362 0.74290
 O1406 O 0.46655 0.26801 0.71734
 O1407 O 0.51421 0.21540 0.74467
 O1408 O 0.51145 0.22114 0.76996
 O1409 O 0.53648 0.25124 0.72837
 O1410 O 0.53149 0.27742 0.73011
 O1411 O 0.50044 0.23492 0.70641
 O1412 O 0.47439 0.23911 0.71018
 Zr1413 Zr 0.49016 0.23649 0.72640
 O1414 O 0.47610 0.24951 0.73809
 Zr1415 Zr 0.51617 0.26085 0.72771
 O1416 O 0.50302 0.27511 0.73898
 Zr1417 Zr 0.51370 0.23623 0.75324
 O1418 O 0.50085 0.24957 0.76591
 Zr1419 Zr 0.48141 0.27096 0.73437
 O1420 O 0.49464 0.25803 0.72148
 Zr1421 Zr 0.47928 0.24657 0.76017
 O1422 O 0.49206 0.23213 0.74850
 Zr1423 Zr 0.50511 0.27110 0.76103
 O1424 O 0.51944 0.25773 0.74982
 O1425 O 0.51167 0.23946 0.73134
 O1426 O 0.48353 0.26805 0.75641
 C1427 C 0.50738 0.20929 0.73431
 C1428 C 0.51066 0.24213 0.70065
 C1429 C 0.54186 0.24139 0.73632
 C1430 C 0.48604 0.29757 0.75351
 C1431 C 0.45401 0.26696 0.75279
 C1432 C 0.48427 0.26642 0.78657
 H1433 H 0.46612 0.24747 0.73515
 H1434 H 0.50261 0.24743 0.77614
 H1435 H 0.51792 0.23310 0.72572
 H1436 H 0.50558 0.28506 0.73648
 H1437 H 0.48727 0.28225 0.70983
 H1438 H 0.51147 0.28310 0.71215
 H1439 H 0.48595 0.23158 0.78264
 H1440 H 0.50204 0.21645 0.76854
 H1441 H 0.46008 0.27637 0.71719
 H1442 H 0.47552 0.23142 0.70297
 H1443 H 0.51992 0.26284 0.78304
 H1444 H 0.53305 0.24559 0.77064
 H1445 H 0.47308 0.21713 0.73631
 H1446 H 0.45792 0.23135 0.75079
 H1447 H 0.53672 0.27555 0.73916
 H1448 H 0.52095 0.29262 0.75326
 O1449 O 0.25883 0.76509 0.46148
 O1450 O 0.23429 0.76401 0.46485
 O1451 O 0.27537 0.78387 0.49985
 O1452 O 0.27451 0.77971 0.52346
 O1453 O 0.29469 0.74593 0.48313
 O1454 O 0.28861 0.72147 0.48319
 O1455 O 0.23545 0.74644 0.53600
 O1456 O 0.23866 0.77052 0.53182
 O1457 O 0.21798 0.72872 0.49848
 O1458 O 0.22382 0.72920 0.47343
 O1459 O 0.25350 0.70902 0.51760
 O1460 O 0.27853 0.71354 0.51903
 O1461 O 0.25148 0.72826 0.53665
 O1462 O 0.27878 0.72996 0.53306
 O1463 O 0.23671 0.70932 0.49991
 O1464 O 0.23999 0.71496 0.47327
 O1465 O 0.21779 0.74515 0.51638
 O1466 O 0.22288 0.77116 0.51149
 O1467 O 0.27547 0.74741 0.46218
 O1468 O 0.27273 0.72180 0.46730
 O1469 O 0.29463 0.76324 0.50019
 O1470 O 0.28743 0.76098 0.52598
 O1471 O 0.25911 0.78458 0.48164
 O1472 O 0.23288 0.77948 0.48366
 Zr1473 Zr 0.24938 0.76413 0.48185
 O1474 O 0.23475 0.75149 0.49347
 Zr1475 Zr 0.27352 0.76312 0.50814
 O1476 O 0.25956 0.75119 0.52119
 Zr1477 Zr 0.27359 0.73825 0.48280
 O1478 O 0.26030 0.72482 0.49506
 Zr1479 Zr 0.23815 0.75492 0.51542
 O1480 O 0.25206 0.76860 0.50383
 Zr1481 Zr 0.23888 0.72968 0.49043
 O1482 O 0.25221 0.74229 0.47716
 Zr1483 Zr 0.26267 0.72944 0.51702
 O1484 O 0.27764 0.74133 0.50483
 O1485 O 0.27073 0.75988 0.48634
 O1486 O 0.24126 0.73314 0.51233
 C1487 C 0.26889 0.75770 0.45580
 C1488 C 0.26902 0.79026 0.48944
 C1489 C 0.30088 0.75574 0.49054
 C1490 C 0.24139 0.73573 0.54219
 C1491 C 0.21185 0.73522 0.50886
 C1492 C 0.24341 0.70318 0.51027
 H1493 H 0.22485 0.75399 0.49068
 H1494 H 0.26260 0.71476 0.49290
 H1495 H 0.27734 0.76583 0.48058
 H1496 H 0.26126 0.75359 0.53137
 H1497 H 0.24221 0.77946 0.52737
 H1498 H 0.26641 0.77815 0.53005
 H1499 H 0.24728 0.70774 0.47575
 H1500 H 0.26395 0.72337 0.46155
 H1501 H 0.21563 0.77066 0.51920
 H1502 H 0.23442 0.78701 0.47633
 H1503 H 0.27922 0.70868 0.50966
 H1504 H 0.29264 0.72125 0.49302
 H1505 H 0.23420 0.75421 0.46088
 H1506 H 0.21895 0.73855 0.47324
 H1507 H 0.29317 0.75228 0.52436
 H1508 H 0.27603 0.73712 0.54031
 O1509 O 0.26554 0.28606 0.99572
 O1510 O 0.26322 0.28263 1.02039
 O1511 O 0.28607 0.24835 0.98085
 O1512 O 0.28215 0.22486 0.98064
 O1513 O 0.24823 0.26424 0.95905
 O1514 O 0.22348 0.26323 0.96394
 O1515 O 0.24769 0.21129 1.01857
 O1516 O 0.27185 0.21601 1.01628
 O1517 O 0.22864 0.24798 1.03513
 O1518 O 0.22860 0.27302 1.02915
 O1519 O 0.21084 0.22814 0.99910
 O1520 O 0.21599 0.22762 0.97380
 O1521 O 0.23043 0.21007 1.00133
 O1522 O 0.23274 0.21403 0.97422
 O1523 O 0.20973 0.24615 1.01534
 O1524 O 0.21477 0.27270 1.01249
 O1525 O 0.24570 0.23081 1.03614
 O1526 O 0.27167 0.23630 1.03203
 O1527 O 0.24824 0.28513 0.97845
 O1528 O 0.22275 0.27910 0.97968
 O1529 O 0.26614 0.24794 0.96008
 O1530 O 0.26403 0.22208 0.96706
 O1531 O 0.28532 0.26685 0.99660
 O1532 O 0.27940 0.26449 1.02256
 Zr1533 Zr 0.26456 0.26580 1.00531
 O1534 O 0.25174 0.25372 1.01935
 Zr1535 Zr 0.26528 0.23975 0.98115
 O1536 O 0.25313 0.22629 0.99452
 Zr1537 Zr 0.23967 0.26421 0.97980
 O1538 O 0.22605 0.25151 0.99251
 Zr1539 Zr 0.25593 0.23199 1.01611
 O1540 O 0.26980 0.24409 1.00289
 Zr1541 Zr 0.22999 0.25612 1.01418
 O1542 O 0.24271 0.26982 1.00139
 Zr1543 Zr 0.23137 0.22981 0.99038
 O1544 O 0.24353 0.24240 0.97596
 O1545 O 0.26131 0.26134 0.98373
 O1546 O 0.23416 0.23444 1.01200
 C1547 C 0.25830 0.29164 0.98540
 C1548 C 0.29180 0.25906 0.98735
 C1549 C 0.25857 0.25729 0.95339
 C1550 C 0.23749 0.20478 1.01195
 C1551 C 0.23542 0.23797 1.04165
 C1552 C 0.20433 0.23531 1.00876
 H1553 H 0.25384 0.25653 1.02937
 H1554 H 0.21600 0.25333 0.98976
 H1555 H 0.26741 0.26728 0.97743
 H1556 H 0.25587 0.21623 0.99294
 H1557 H 0.28084 0.22068 1.01316
 H1558 H 0.28075 0.21843 0.98893
 H1559 H 0.20808 0.27023 1.00461
 H1560 H 0.22365 0.28470 0.98864
 H1561 H 0.27122 0.22854 1.03925
 H1562 H 0.28666 0.27217 1.02143
 H1563 H 0.21050 0.23660 0.97337
 H1564 H 0.22361 0.25338 0.96009
 H1565 H 0.25341 0.28650 1.01966
 H1566 H 0.23776 0.27343 1.03447
 H1567 H 0.25556 0.22358 0.96084
 H1568 H 0.24027 0.20720 0.97706
 C1569 C 0.29217 0.36463 0.81185
 C1570 C 0.28648 0.37776 0.80765
 C1571 C 0.28509 0.38118 0.79312
 C1572 C 0.28926 0.37118 0.78275
 C1573 C 0.29484 0.35799 0.78693
 C1574 C 0.29645 0.35457 0.80154
 N1575 N 0.27963 0.39492 0.78921
 N1576 N 0.27956 0.39932 0.77630
 C1577 C 0.27426 0.41312 0.77239
 C1578 C 0.27632 0.41800 0.75838
 C1579 C 0.27183 0.43164 0.75434
 C1580 C 0.26500 0.44059 0.76425
 C1581 C 0.26265 0.43553 0.77825
 C1582 C 0.26730 0.42194 0.78231
 H1583 H 0.29347 0.36247 0.82318
 H1584 H 0.28335 0.38539 0.81574
 H1585 H 0.28820 0.37355 0.77143
 H1586 H 0.29780 0.35042 0.77871
 H1587 H 0.28165 0.41130 0.75063
 H1588 H 0.27376 0.43518 0.74346
 H1589 H 0.25750 0.44219 0.78616
 H1590 H 0.26555 0.41838 0.79321
 C1591 C 0.31245 -0.13161 0.29174
 C1592 C 0.30790 -0.11848 0.28639
 C1593 C 0.29407 -0.11369 0.28895
 C1594 C 0.28469 -0.12221 0.29701
 C1595 C 0.28917 -0.13544 0.30237
 C1596 C 0.30316 -0.14050 0.29977
 N1597 N 0.28994 -0.10013 0.28326
 N1598 N 0.27782 -0.09454 0.28569
 C1599 C 0.27406 -0.08090 0.27987
 C1600 C 0.26120 -0.07461 0.28399
 C1601 C 0.25747 -0.06109 0.27887
 C1602 C 0.26655 -0.05367 0.26941
 C1603 C 0.27935 -0.06015 0.26509
 C1604 C 0.28310 -0.07362 0.27030
 H1605 H 0.32351 -0.13436 0.28996
 H1606 H 0.31529 -0.11190 0.28035
 H1607 H 0.27387 -0.11873 0.29905
 H1608 H 0.28136 -0.14183 0.30803
 H1609 H 0.25413 -0.08011 0.29134
 H1610 H 0.24752 -0.05642 0.28240
 H1611 H 0.28662 -0.05471 0.25788
 H1612 H 0.29310 -0.07827 0.26692
 C1613 C 0.81114 0.87028 0.79389
 C1614 C 0.80564 0.88297 0.78839
 C1615 C 0.79178 0.88723 0.79167
 C1616 C 0.78331 0.87857 0.80053
 C1617 C 0.78874 0.86575 0.80601
 C1618 C 0.80282 0.86127 0.80280
 N1619 N 0.78678 0.90049 0.78595
 N1620 N 0.77478 0.90593 0.78917
 C1621 C 0.77041 0.91935 0.78323
 C1622 C 0.75809 0.92598 0.78843
 C1623 C 0.75412 0.93948 0.78339
 C1624 C 0.76237 0.94653 0.77293
 C1625 C 0.77450 0.93963 0.76746
 C1626 C 0.77850 0.92622 0.77258
 H1627 H 0.82220 0.86802 0.79154
 H1628 H 0.81233 0.88968 0.78171
 H1629 H 0.77248 0.88163 0.80312
 H1630 H 0.78158 0.85921 0.81232
 H1631 H 0.75175 0.92080 0.79662
 H1632 H 0.74470 0.94448 0.78782
 H1633 H 0.78114 0.94472 0.75945
 H1634 H 0.78803 0.92132 0.76832
 C1635 C 0.46604 0.88608 0.30173
 C1636 C 0.47199 0.87347 0.29647
 C1637 C 0.46325 0.86286 0.29046
 C1638 C 0.44840 0.86499 0.28979
 C1639 C 0.44241 0.87751 0.29519
 C1640 C 0.45115 0.88823 0.30125
 N1641 N 0.46961 0.84991 0.28541
 N1642 N 0.46245 0.84077 0.27823
 C1643 C 0.46838 0.82755 0.27345
 C1644 C 0.46031 0.81901 0.26412
 C1645 C 0.46547 0.80581 0.25959
 C1646 C 0.47879 0.80079 0.26448
 C1647 C 0.48694 0.80943 0.27381
 C1648 C 0.48181 0.82275 0.27821
 H1649 H 0.47312 0.89418 0.30612
 H1650 H 0.48346 0.87197 0.29703
 H1651 H 0.44139 0.85689 0.28532
 H1652 H 0.43090 0.87862 0.29490
 H1653 H 0.44992 0.82257 0.26043
 H1654 H 0.45886 0.79941 0.25249
 H1655 H 0.49722 0.80588 0.27779
 H1656 H 0.48822 0.82915 0.28549
 C1657 C -0.04118 0.88275 0.81074
 C1658 C -0.03525 0.87026 0.80529
 C1659 C -0.03759 0.86631 0.79107
 C1660 C -0.04580 0.87517 0.78216
 C1661 C -0.05169 0.88777 0.78753
 C1662 C -0.04959 0.89184 0.80201
 N1663 N -0.03176 0.85313 0.78610
 N1664 N -0.03457 0.84807 0.77374
 C1665 C -0.02884 0.83472 0.76906
 C1666 C -0.03371 0.82887 0.75613
 C1667 C -0.02889 0.81552 0.75162
 C1668 C -0.01896 0.80784 0.75994
 C1669 C -0.01384 0.81390 0.77277
 C1670 C -0.01877 0.82720 0.77733
 H1671 H -0.03963 0.88472 0.82205
 H1672 H -0.02905 0.86342 0.81230
 H1673 H -0.04763 0.87240 0.77104
 H1674 H -0.05748 0.89444 0.78006
 H1675 H -0.04147 0.83457 0.74967
 H1676 H -0.03304 0.81118 0.74167
 H1677 H -0.00625 0.80825 0.77947
 H1678 H -0.01482 0.83152 0.78736
 C1679 C -0.04272 -0.13559 -0.06340
 C1680 C -0.03740 -0.12261 -0.05817
 C1681 C -0.03665 -0.12006 -0.04342
 C1682 C -0.04101 -0.13081 -0.03386
 C1683 C -0.04617 -0.14388 -0.03906
 C1684 C -0.04723 -0.14639 -0.05392
 N1685 N -0.03163 -0.10642 -0.03852
 N1686 N -0.03242 -0.10253 -0.02548
 C1687 C -0.02742 -0.08877 -0.02085
 C1688 C -0.03059 -0.08410 -0.00697
 C1689 C -0.02640 -0.07046 -0.00240
 C1690 C -0.01877 -0.06132 -0.01162
 C1691 C -0.01533 -0.06619 -0.02544
 C1692 C -0.01966 -0.07974 -0.03003
 H1693 H -0.04360 -0.13701 -0.07489
 H1694 H -0.03411 -0.11439 -0.06566
 H1695 H -0.04041 -0.12912 -0.02239
 H1696 H -0.04929 -0.15202 -0.03144
 H1697 H -0.03655 -0.09096 0.00022
 H1698 H -0.02920 -0.06705 0.00831
 H1699 H -0.00954 -0.05941 -0.03286
 H1700 H -0.01703 -0.08310 -0.04079
 C1701 C -0.04474 0.36513 0.43584
 C1702 C -0.03926 0.37798 0.44116
 C1703 C -0.04084 0.38157 0.45557
 C1704 C -0.04783 0.37201 0.46478
 C1705 C -0.05322 0.35904 0.45955
 C1706 C -0.05189 0.35530 0.44490
 N1707 N -0.03525 0.39498 0.46047
 N1708 N -0.03756 0.39985 0.47298
 C1709 C -0.03175 0.41334 0.47748
 C1710 C -0.03608 0.41924 0.49053
 C1711 C -0.03087 0.43260 0.49493
 C1712 C -0.02108 0.44019 0.48637
 C1713 C -0.01660 0.43409 0.47337
 C1714 C -0.02191 0.42085 0.46895
 H1715 H -0.04382 0.36339 0.42444
 H1716 H -0.03397 0.38534 0.43393
 H1717 H -0.04899 0.37448 0.47604
 H1718 H -0.05796 0.35185 0.46726
 H1719 H -0.04365 0.41356 0.49722
 H1720 H -0.03452 0.43699 0.50499
 H1721 H -0.00914 0.43964 0.46646
 H1722 H -0.01834 0.41651 0.45884
 C1723 C 0.47675 -0.14931 0.45306
 C1724 C 0.48273 -0.13666 0.45842
 C1725 C 0.47477 -0.12773 0.46728
 C1726 C 0.46082 -0.13172 0.47101
 C1727 C 0.45478 -0.14428 0.46565
 C1728 C 0.46253 -0.15332 0.45639
 N1729 N 0.48076 -0.11435 0.47176
 N1730 N 0.47406 -0.10604 0.48012
 C1731 C 0.47949 -0.09229 0.48411
 C1732 C 0.47166 -0.08400 0.49370
 C1733 C 0.47614 -0.07016 0.49712
 C1734 C 0.48855 -0.06435 0.49090
 C1735 C 0.49654 -0.07283 0.48144
 C1736 C 0.49206 -0.08669 0.47809
 H1737 H 0.48352 -0.15599 0.44657
 H1738 H 0.49357 -0.13374 0.45556
 H1739 H 0.45437 -0.12491 0.47773
 H1740 H 0.44368 -0.14626 0.46820
 H1741 H 0.46192 -0.08820 0.49836
 H1742 H 0.46971 -0.06392 0.50441
 H1743 H 0.50615 -0.06871 0.47646
 H1744 H 0.49827 -0.09290 0.47060
 C1745 C 0.45043 0.35744 -0.04061
 C1746 C 0.45711 0.36979 -0.03541
 C1747 C 0.46469 0.37880 -0.04471
 C1748 C 0.46569 0.37519 -0.05917
 C1749 C 0.45896 0.36292 -0.06446
 C1750 C 0.45103 0.35378 -0.05532
 N1751 N 0.47115 0.39183 -0.03986
 N1752 N 0.46943 0.39655 -0.02721
 C1753 C 0.47569 0.40977 -0.02259
 C1754 C 0.47193 0.41531 -0.00922
 C1755 C 0.47719 0.42860 -0.00477
 C1756 C 0.48646 0.43651 -0.01362
 C1757 C 0.49051 0.43071 -0.02689
 C1758 C 0.48514 0.41750 -0.03136
 H1759 H 0.44519 0.35064 -0.03286
 H1760 H 0.45636 0.37227 -0.02411
 H1761 H 0.47144 0.38213 -0.06647
 H1762 H 0.45946 0.36117 -0.07589
 H1763 H 0.46465 0.40945 -0.00236
 H1764 H 0.47387 0.43273 0.00552
 H1765 H 0.49757 0.43654 -0.03401
 H1766 H 0.48824 0.41342 -0.04174
 C1767 C 0.77761 0.39999 0.45140
 C1768 C 0.77134 0.38734 0.45638
 C1769 C 0.77963 0.37707 0.46342
 C1770 C 0.79433 0.37959 0.46540
 C1771 C 0.80064 0.39212 0.46030
 C1772 C 0.79237 0.40251 0.45325
 N1773 N 0.77307 0.36404 0.46814
 N1774 N 0.77986 0.35530 0.47607
 C1775 C 0.77405 0.34189 0.48060
 C1776 C 0.78193 0.33371 0.49032
 C1777 C 0.77711 0.32021 0.49443
 C1778 C 0.76431 0.31454 0.48876
 C1779 C 0.75627 0.32289 0.47913
 C1780 C 0.76108 0.33650 0.47510
 H1781 H 0.77091 0.40783 0.44616
 H1782 H 0.75999 0.38553 0.45477
 H1783 H 0.80103 0.37175 0.47066
 H1784 H 0.81207 0.39351 0.46163
 H1785 H 0.79196 0.33775 0.49456
 H1786 H 0.78364 0.31408 0.50180
 H1787 H 0.74638 0.31884 0.47457
 H1788 H 0.75484 0.34264 0.46751
 C1789 C 0.78193 0.89349 -0.05098
 C1790 C 0.77710 0.88007 -0.04659
 C1791 C 0.78049 0.87486 -0.03300
 C1792 C 0.78867 0.88333 -0.02364
 C1793 C 0.79346 0.89684 -0.02793
 C1794 C 0.79027 0.90223 -0.04177
 N1795 N 0.77565 0.86087 -0.02915
 N1796 N 0.77929 0.85475 -0.01751
 C1797 C 0.77440 0.84064 -0.01411
 C1798 C 0.78008 0.83364 -0.00213
 C1799 C 0.77604 0.81957 0.00099
 C1800 C 0.76612 0.81232 -0.00781
 C1801 C 0.76019 0.81954 -0.01964
 C1802 C 0.76432 0.83353 -0.02279
 H1803 H 0.77959 0.89653 -0.06192
 H1804 H 0.77091 0.87354 -0.05396
 H1805 H 0.79129 0.87955 -0.01298
 H1806 H 0.79926 0.90313 -0.02010
 H1807 H 0.78785 0.83901 0.00465
 H1808 H 0.78079 0.81435 0.01020
 H1809 H 0.75256 0.81429 -0.02668
 H1810 H 0.75973 0.83872 -0.03210
 C1811 C 0.81293 0.29431 0.36809
 C1812 C 0.80800 0.28880 0.38108
 C1813 C 0.79343 0.28904 0.38434
 C1814 C 0.78372 0.29469 0.37432
 C1815 C 0.78862 0.30009 0.36123
 C1816 C 0.80331 0.30004 0.35798
 N1817 N 0.78888 0.28367 0.39796
 N1818 N 0.77612 0.28504 0.40243
 C1819 C 0.77181 0.27976 0.41618
 C1820 C 0.75841 0.28354 0.42152
 C1821 C 0.75422 0.27919 0.43522
 C1822 C 0.76335 0.27080 0.44376
 C1823 C 0.77666 0.26669 0.43819
 C1824 C 0.78089 0.27119 0.42456
 H1825 H 0.82433 0.29434 0.36609
 H1826 H 0.81559 0.28453 0.38875
 H1827 H 0.77238 0.29491 0.37658
 H1828 H 0.78090 0.30421 0.35362
 H1829 H 0.75131 0.29012 0.41516
 H1830 H 0.74388 0.28249 0.43918
 H1831 H 0.78398 0.26029 0.44449
 H1832 H 0.79130 0.26807 0.42064
 C1833 C 0.81532 0.80028 -0.12994
 C1834 C 0.81042 0.79452 -0.11704
 C1835 C 0.79581 0.79435 -0.11389
 C1836 C 0.78605 0.79996 -0.12389
 C1837 C 0.79092 0.80560 -0.13689
 C1838 C 0.80563 0.80584 -0.14008
 N1839 N 0.79126 0.78839 -0.10052
 N1840 N 0.77846 0.78929 -0.09604
 C1841 C 0.77422 0.78316 -0.08262
 C1842 C 0.76083 0.78654 -0.07694
 C1843 C 0.75667 0.78115 -0.06358
 C1844 C 0.76580 0.77209 -0.05578
 C1845 C 0.77910 0.76845 -0.06170
 C1846 C 0.78331 0.77399 -0.07494
 H1847 H 0.82672 0.80053 -0.13188
 H1848 H 0.81804 0.79028 -0.10940
 H1849 H 0.77469 0.79986 -0.12172
 H1850 H 0.78315 0.80959 -0.14453
 H1851 H 0.75370 0.79357 -0.08277
 H1852 H 0.74635 0.78413 -0.05935
 H1853 H 0.78644 0.76158 -0.05595
 H1854 H 0.79369 0.77115 -0.07912
 C1855 C 0.28701 0.44602 0.89033
 C1856 C 0.28102 0.45127 0.87763
 C1857 C 0.28973 0.45717 0.86700
 C1858 C 0.30460 0.45775 0.86917
 C1859 C 0.31063 0.45240 0.88181
 C1860 C 0.30191 0.44647 0.89256
 N1861 N 0.28324 0.46228 0.85404
 N1862 N 0.29035 0.46896 0.84453
 C1863 C 0.28395 0.47380 0.83143
 C1864 C 0.29207 0.48223 0.82209
 C1865 C 0.28627 0.48688 0.80908
 C1866 C 0.27222 0.48306 0.80510
 C1867 C 0.26407 0.47461 0.81454
 C1868 C 0.26986 0.47007 0.82761
 H1869 H 0.27996 0.44174 0.89846
 H1870 H 0.26954 0.45078 0.87609
 H1871 H 0.31158 0.46217 0.86105
 H1872 H 0.32215 0.45270 0.88306
 H1873 H 0.30295 0.48514 0.82490
 H1874 H 0.29288 0.49328 0.80203
 H1875 H 0.25323 0.47147 0.81181
 H1876 H 0.26338 0.46351 0.83463
 C1877 C 0.28389 -0.04906 0.39483
 C1878 C 0.27757 -0.04363 0.38235
 C1879 C 0.28605 -0.03786 0.37146
 C1880 C 0.30100 -0.03758 0.37317
 C1881 C 0.30733 -0.04314 0.38555
 C1882 C 0.29887 -0.04897 0.39655
 N1883 N 0.27935 -0.03259 0.35866
 N1884 N 0.28643 -0.02560 0.34937
 C1885 C 0.28032 -0.02052 0.33624
 C1886 C 0.28859 -0.01155 0.32760
 C1887 C 0.28335 -0.00679 0.31443
 C1888 C 0.26971 -0.01106 0.30953
 C1889 C 0.26135 -0.02003 0.31829
 C1890 C 0.26659 -0.02467 0.33159
 H1891 H 0.27703 -0.05326 0.40316
 H1892 H 0.26605 -0.04389 0.38118
 H1893 H 0.30781 -0.03330 0.36485
 H1894 H 0.31888 -0.04315 0.38635
 H1895 H 0.29921 -0.00835 0.33104
 H1896 H 0.29016 -0.00002 0.30794
 H1897 H 0.25083 -0.02353 0.31481
 H1898 H 0.26004 -0.03168 0.33810
 C1899 C -0.04428 -0.06324 -0.13148
 C1900 C -0.03894 -0.05811 -0.11848
 C1901 C -0.04202 -0.04430 -0.11395
 C1902 C -0.05054 -0.03552 -0.12263
 C1903 C -0.05585 -0.04057 -0.13575
 C1904 C -0.05281 -0.05458 -0.14052
 N1905 N -0.03639 -0.03963 -0.10045
 N1906 N -0.03953 -0.02770 -0.09480
 C1907 C -0.03365 -0.02355 -0.08120
 C1908 C -0.03878 -0.01130 -0.07441
 C1909 C -0.03368 -0.00742 -0.06082
 C1910 C -0.02321 -0.01571 -0.05387
 C1911 C -0.01785 -0.02782 -0.06089
 C1912 C -0.02305 -0.03173 -0.07438
 H1913 H -0.04210 -0.07428 -0.13397
 H1914 H -0.03253 -0.06504 -0.11176
 H1915 H -0.05296 -0.02472 -0.11936
 H1916 H -0.06188 -0.03318 -0.14228
 H1917 H -0.04694 -0.00489 -0.07956
 H1918 H -0.03801 0.00198 -0.05573
 H1919 H -0.00984 -0.03448 -0.05584
 H1920 H -0.01885 -0.04123 -0.07941
 C1921 C -0.03766 0.44131 0.36274
 C1922 C -0.03160 0.44557 0.37577
 C1923 C -0.03333 0.45948 0.38075
 C1924 C -0.04088 0.46933 0.37235
 C1925 C -0.04689 0.46516 0.35926
 C1926 C -0.04564 0.45097 0.35424
 N1927 N -0.02773 0.46318 0.39457
 N1928 N -0.03012 0.47521 0.40038
 C1929 C -0.02481 0.47865 0.41438
 C1930 C -0.02901 0.49144 0.42078
 C1931 C -0.02467 0.49473 0.43476
 C1932 C -0.01593 0.48526 0.44253
 C1933 C -0.01147 0.47256 0.43591
 C1934 C -0.01590 0.46926 0.42199
 H1935 H -0.03666 0.43018 0.35990
 H1936 H -0.02586 0.43785 0.38223
 H1937 H -0.04217 0.48025 0.37589
 H1938 H -0.05219 0.47331 0.35301
 H1939 H -0.03589 0.49876 0.41502
 H1940 H -0.02827 0.50461 0.43951
 H1941 H -0.00477 0.46501 0.44158
 H1942 H -0.01249 0.45931 0.41725
 C1943 C 0.44848 -0.04119 0.36053
 C1944 C 0.45386 -0.03517 0.37317
 C1945 C 0.45974 -0.04383 0.38387
 C1946 C 0.46011 -0.05869 0.38184
 C1947 C 0.45460 -0.06475 0.36927
 C1948 C 0.44872 -0.05607 0.35844
 N1949 N 0.46506 -0.03732 0.39674
 N1950 N 0.47204 -0.04435 0.40610
 C1951 C 0.47714 -0.03799 0.41913
 C1952 C 0.48617 -0.04590 0.42806
 C1953 C 0.49118 -0.04015 0.44097
 C1954 C 0.48707 -0.02638 0.44526
 C1955 C 0.47796 -0.01845 0.43627
 C1956 C 0.47309 -0.02417 0.42327
 H1957 H 0.44426 -0.03417 0.35234
 H1958 H 0.45353 -0.02370 0.37459
 H1959 H 0.46450 -0.06562 0.39002
 H1960 H 0.45474 -0.07625 0.36815
 H1961 H 0.48932 -0.05658 0.42501
 H1962 H 0.49806 -0.04660 0.44769
 H1963 H 0.47459 -0.00783 0.43927
 H1964 H 0.46605 -0.01787 0.41657
 C1965 C 0.43677 0.45521 -0.13367
 C1966 C 0.44108 0.46009 -0.12016
 C1967 C 0.45555 0.46008 -0.11627
 C1968 C 0.46574 0.45523 -0.12612
 C1969 C 0.46146 0.45046 -0.13968
 C1970 C 0.44692 0.45035 -0.14361
 N1971 N 0.45960 0.46500 -0.10229
 N1972 N 0.47234 0.46380 -0.09760
 C1973 C 0.47657 0.46872 -0.08368
 C1974 C 0.49024 0.46537 -0.07862
 C1975 C 0.49468 0.46979 -0.06501
 C1976 C 0.48554 0.47782 -0.05627
 C1977 C 0.47184 0.48134 -0.06145
 C1978 C 0.46736 0.47676 -0.07503
 H1979 H 0.42547 0.45506 -0.13625
 H1980 H 0.43312 0.46377 -0.11265
 H1981 H 0.47701 0.45521 -0.12340
 H1982 H 0.46957 0.44702 -0.14714
 H1983 H 0.49743 0.45921 -0.08521
 H1984 H 0.50531 0.46695 -0.06137
 H1985 H 0.46452 0.48744 -0.05495
 H1986 H 0.45674 0.47951 -0.07875
 C1987 C 0.45928 0.80716 0.38490
 C1988 C 0.46358 0.80270 0.37132
 C1989 C 0.46245 0.78834 0.36737
 C1990 C 0.45697 0.77839 0.37723
 C1991 C 0.45277 0.78281 0.39089
 C1992 C 0.45389 0.79726 0.39490
 N1993 N 0.46705 0.78419 0.35337
 N1994 N 0.46508 0.77165 0.34847
 C1995 C 0.46990 0.76763 0.33450
 C1996 C 0.46586 0.75432 0.32897
 C1997 C 0.47027 0.75015 0.31531
 C1998 C 0.47899 0.75920 0.30701
 C1999 C 0.48314 0.77252 0.31266
 C2000 C 0.47859 0.77673 0.32625
 H2001 H 0.46004 0.81840 0.38750
 H2002 H 0.46774 0.81047 0.36379
 H2003 H 0.45607 0.76720 0.37444
 H2004 H 0.44885 0.77489 0.39838
 H2005 H 0.45919 0.74721 0.33523
 H2006 H 0.46692 0.73981 0.31129
 H2007 H 0.48977 0.77978 0.30652
 H2008 H 0.48189 0.78706 0.33031
 C2009 C -0.06042 0.78921 0.88106
 C2010 C -0.05584 0.78359 0.86802
 C2011 C -0.04194 0.78604 0.86322
 C2012 C -0.03252 0.79418 0.87169
 C2013 C -0.03702 0.79978 0.88481
 C2014 C -0.05111 0.79743 0.88984
 N2015 N -0.03779 0.78023 0.84967
 N2016 N -0.02569 0.78282 0.84402
 C2017 C -0.02182 0.77700 0.83038
 C2018 C -0.00911 0.78154 0.82393
 C2019 C -0.00535 0.77655 0.81034
 C2020 C -0.01423 0.76678 0.80301
 C2021 C -0.02684 0.76199 0.80967
 C2022 C -0.03063 0.76709 0.82320
 H2023 H -0.07152 0.78752 0.88378
 H2024 H -0.06326 0.77747 0.86150
 H2025 H -0.02164 0.79611 0.86824
 H2026 H -0.02915 0.80548 0.89115
 H2027 H -0.00221 0.78916 0.82935
 H2028 H 0.00444 0.78045 0.80554
 H2029 H -0.03396 0.75454 0.80431
 H2030 H -0.04050 0.76337 0.82798
 C2031 C 0.36612 0.80995 0.29153
 C2032 C 0.37861 0.80444 0.28566
 C2033 C 0.38076 0.78971 0.28510
 C2034 C 0.37015 0.78043 0.29036
 C2035 C 0.35752 0.78593 0.29611
 C2036 C 0.35537 0.80078 0.29677
 N2037 N 0.39390 0.78459 0.27930
 N2038 N 0.39761 0.77156 0.28001
 C2039 C 0.41095 0.76688 0.27424
 C2040 C 0.41591 0.75323 0.27765
 C2041 C 0.42934 0.74875 0.27294
 C2042 C 0.43792 0.75783 0.26453
 C2043 C 0.43268 0.77137 0.26074
 C2044 C 0.41936 0.77589 0.26561
 H2045 H 0.36500 0.82143 0.29217
 H2046 H 0.38676 0.81169 0.28172
 H2047 H 0.37159 0.76898 0.28997
 H2048 H 0.34941 0.77857 0.29989
 H2049 H 0.40952 0.74618 0.28427
 H2050 H 0.43305 0.73824 0.27600
 H2051 H 0.43904 0.77864 0.25433
 H2052 H 0.41572 0.78647 0.26276
 C2053 C -0.13149 0.81506 0.79403
 C2054 C -0.11895 0.80995 0.78788
 C2055 C -0.11598 0.79535 0.78792
 C2056 C -0.12582 0.78579 0.79411
 C2057 C -0.13849 0.79088 0.80015
 C2058 C -0.14148 0.80560 0.80019
 N2059 N -0.10290 0.79063 0.78164
 N2060 N -0.09848 0.77784 0.78264
 C2061 C -0.08530 0.77351 0.77622
 C2062 C -0.07969 0.76007 0.77952
 C2063 C -0.06657 0.75581 0.77384
 C2064 C -0.05892 0.76489 0.76458
 C2065 C -0.06474 0.77827 0.76106
 C2066 C -0.07776 0.78257 0.76687
 H2067 H -0.13324 0.82648 0.79415
 H2068 H -0.11141 0.81741 0.78321
 H2069 H -0.12377 0.77443 0.79420
 H2070 H -0.14601 0.78329 0.80465
 H2071 H -0.08540 0.75298 0.78670
 H2072 H -0.06240 0.74543 0.77674
 H2073 H -0.05909 0.78556 0.75403
 H2074 H -0.08189 0.79299 0.76411
 C2075 C 0.89145 0.28251 0.44840
 C2076 C 0.87910 0.27655 0.45441
 C2077 C 0.86885 0.28529 0.46079
 C2078 C 0.87108 0.30014 0.46107
 C2079 C 0.88331 0.30612 0.45490
 C2080 C 0.89366 0.29740 0.44847
 N2081 N 0.85608 0.27898 0.46647
 N2082 N 0.84744 0.28616 0.47406
 C2083 C 0.83426 0.28040 0.47933
 C2084 C 0.82622 0.28860 0.48881
 C2085 C 0.81285 0.28384 0.49345
 C2086 C 0.80718 0.27077 0.48853
 C2087 C 0.81541 0.26239 0.47920
 C2088 C 0.82889 0.26714 0.47468
 H2089 H 0.89928 0.27545 0.44374
 H2090 H 0.87751 0.26510 0.45412
 H2091 H 0.86324 0.30715 0.46578
 H2092 H 0.88446 0.31763 0.45490
 H2093 H 0.83024 0.29886 0.49241
 H2094 H 0.80679 0.29062 0.50055
 H2095 H 0.81136 0.25229 0.47521
 H2096 H 0.83491 0.26064 0.46729
 C2097 C 0.89533 0.78096 -0.04991
 C2098 C 0.88286 0.77504 -0.04412
 C2099 C 0.87250 0.78382 -0.03801
 C2100 C 0.87477 0.79866 -0.03767
 C2101 C 0.88713 0.80460 -0.04361
 C2102 C 0.89755 0.79584 -0.04990
 N2103 N 0.85955 0.77752 -0.03272
 N2104 N 0.85066 0.78466 -0.02539
 C2105 C 0.83735 0.77880 -0.02057
 C2106 C 0.82911 0.78675 -0.01105
 C2107 C 0.81569 0.78180 -0.00673
 C2108 C 0.81017 0.76882 -0.01204
 C2109 C 0.81856 0.76074 -0.02148
 C2110 C 0.83209 0.76565 -0.02566
 H2111 H 0.90321 0.77386 -0.05442
 H2112 H 0.88125 0.76359 -0.04443
 H2113 H 0.86685 0.80569 -0.03312
 H2114 H 0.88833 0.81611 -0.04364
 H2115 H 0.83303 0.79692 -0.00711
 H2116 H 0.80949 0.78835 0.00047
 H2117 H 0.81462 0.75071 -0.02577
 H2118 H 0.83826 0.75935 -0.03311
 C2119 C -0.14611 -0.03189 -0.04840
 C2120 C -0.13268 -0.02719 -0.04379
 C2121 C -0.12722 -0.03140 -0.03053
 C2122 C -0.13550 -0.04022 -0.02166
 C2123 C -0.14905 -0.04488 -0.02616
 C2124 C -0.15464 -0.04094 -0.03973
 N2125 N -0.11314 -0.02677 -0.02658
 N2126 N -0.10668 -0.03113 -0.01538
 C2127 C -0.09245 -0.02637 -0.01202
 C2128 C -0.08508 -0.03255 -0.00051
 C2129 C -0.07094 -0.02854 0.00253
 C2130 C -0.06397 -0.01817 -0.00588
 C2131 C -0.07154 -0.01179 -0.01726
 C2132 C -0.08560 -0.01586 -0.02031
 H2133 H -0.14929 -0.02891 -0.05914
 H2134 H -0.12630 -0.02048 -0.05078
 H2135 H -0.13154 -0.04347 -0.01124
 H2136 H -0.15518 -0.05124 -0.01869
 H2137 H -0.09024 -0.04066 0.00597
 H2138 H -0.06544 -0.03365 0.01139
 H2139 H -0.06655 -0.00378 -0.02398
 H2140 H -0.09106 -0.01087 -0.02925
 C2141 C -0.14136 0.44691 0.46660
 C2142 C -0.12844 0.45137 0.47270
 C2143 C -0.12277 0.46481 0.46959
 C2144 C -0.13038 0.47401 0.46049
 C2145 C -0.14341 0.46964 0.45442
 C2146 C -0.14915 0.45589 0.45719
 N2147 N -0.10906 0.46855 0.47542
 N2148 N -0.10251 0.48004 0.47214
 C2149 C -0.08857 0.48326 0.47777
 C2150 C -0.08120 0.49523 0.47261
 C2151 C -0.06717 0.49805 0.47712
 C2152 C -0.06030 0.48896 0.48697
 C2153 C -0.06793 0.47719 0.49247
 C2154 C -0.08190 0.47434 0.48788
 H2155 H -0.14466 0.43606 0.46878
 H2156 H -0.12258 0.44413 0.47960
 H2157 H -0.12625 0.48455 0.45805
 H2158 H -0.14902 0.47731 0.44785
 H2159 H -0.08622 0.50219 0.46482
 H2160 H -0.06165 0.50723 0.47270
 H2161 H -0.06298 0.46994 0.50005
 H2162 H -0.08739 0.46503 0.49207
 C2163 C 0.36730 -0.04212 0.44032
 C2164 C 0.38050 -0.03684 0.44502
 C2165 C 0.38537 -0.03958 0.45890
 C2166 C 0.37676 -0.04762 0.46820
 C2167 C 0.36347 -0.05289 0.46358
 C2168 C 0.35841 -0.05031 0.44947
 N2169 N 0.39914 -0.03418 0.46313
 N2170 N 0.40481 -0.03694 0.47525
 C2171 C 0.41867 -0.03151 0.47918
 C2172 C 0.42487 -0.03585 0.49214
 C2173 C 0.43856 -0.03109 0.49605
 C2174 C 0.44628 -0.02177 0.48707
 C2175 C 0.43990 -0.01726 0.47414
 C2176 C 0.42626 -0.02210 0.47022
 H2177 H 0.36453 -0.04023 0.42922
 H2178 H 0.38712 -0.03076 0.43769
 H2179 H 0.38025 -0.04976 0.47907
 H2180 H 0.35706 -0.05856 0.47136
 H2181 H 0.41914 -0.04309 0.49915
 H2182 H 0.44312 -0.03478 0.50608
 H2183 H 0.44554 -0.01015 0.46693
 H2184 H 0.42171 -0.01856 0.46014
 C2185 C 0.36078 0.46418 -0.05276
 C2186 C 0.37346 0.47021 -0.04743
 C2187 C 0.38290 0.46210 -0.03919
 C2188 C 0.37948 0.44781 -0.03619
 C2189 C 0.36688 0.44170 -0.04156
 C2190 C 0.35724 0.44970 -0.05008
 N2191 N 0.39606 0.46843 -0.03434
 N2192 N 0.40452 0.46188 -0.02591
 C2193 C 0.41795 0.46779 -0.02133
 C2194 C 0.42610 0.46028 -0.01127
 C2195 C 0.43954 0.46533 -0.00701
 C2196 C 0.44517 0.47802 -0.01286
 C2197 C 0.43688 0.48566 -0.02287
 C2198 C 0.42336 0.48061 -0.02704
 H2199 H 0.35367 0.47115 -0.05861
 H2200 H 0.37591 0.48129 -0.04973
 H2201 H 0.38670 0.44124 -0.02996
 H2202 H 0.36526 0.43045 -0.03952
 H2203 H 0.42207 0.45036 -0.00684
 H2204 H 0.44564 0.45911 0.00064
 H2205 H 0.44088 0.49545 -0.02760
 H2206 H 0.41727 0.48659 -0.03489
 C2207 C 0.39531 0.46980 0.79411
 C2208 C 0.38271 0.47552 0.78845
 C2209 C 0.37254 0.46665 0.78187
 C2210 C 0.37523 0.45196 0.78075
 C2211 C 0.38778 0.44621 0.78648
 C2212 C 0.39790 0.45504 0.79337
 N2213 N 0.35931 0.47268 0.77708
 N2214 N 0.34997 0.46534 0.77034
 C2215 C 0.33642 0.47112 0.76620
 C2216 C 0.32709 0.46276 0.75793
 C2217 C 0.31345 0.46774 0.75441
 C2218 C 0.30887 0.48118 0.75924
 C2219 C 0.31836 0.48963 0.76739
 C2220 C 0.33203 0.48468 0.77080
 H2221 H 0.40298 0.47692 0.79916
 H2222 H 0.38076 0.48687 0.78937
 H2223 H 0.36749 0.44486 0.77578
 H2224 H 0.38931 0.43477 0.78592
 H2225 H 0.33033 0.45227 0.75438
 H2226 H 0.30639 0.46092 0.74819
 H2227 H 0.31519 0.50003 0.77127
 H2228 H 0.33904 0.49132 0.77727
 C2229 C 0.38307 -0.06613 0.29436
 C2230 C 0.37038 -0.06063 0.28867
 C2231 C 0.36765 -0.04598 0.28919
 C2232 C 0.37792 -0.03676 0.29526
 C2233 C 0.39069 -0.04222 0.30082
 C2234 C 0.39338 -0.05700 0.30056
 N2235 N 0.35436 -0.04080 0.28359
 N2236 N 0.35036 -0.02793 0.28519
 C2237 C 0.33700 -0.02293 0.27956
 C2238 C 0.33225 -0.00930 0.28330
 C2239 C 0.31904 -0.00431 0.27832
 C2240 C 0.31043 -0.01287 0.26934
 C2241 C 0.31537 -0.02648 0.26542
 C2242 C 0.32849 -0.03149 0.27052
 H2243 H 0.38465 -0.07757 0.29417
 H2244 H 0.36253 -0.06785 0.28405
 H2245 H 0.37610 -0.02537 0.29566
 H2246 H 0.39849 -0.03485 0.30527
 H2247 H 0.33872 -0.00260 0.29025
 H2248 H 0.31556 0.00621 0.28154
 H2249 H 0.30898 -0.03340 0.25861
 H2250 H 0.33193 -0.04206 0.26745
 C2251 C 0.10382 0.52949 0.70668
 C2252 C 0.11648 0.52360 0.71206
 C2253 C 0.12742 0.53243 0.71731
 C2254 C 0.12556 0.54730 0.71718
 C2255 C 0.11299 0.55322 0.71167
 C2256 C 0.10196 0.54440 0.70630
 N2257 N 0.14050 0.52611 0.72219
 N2258 N 0.15016 0.53341 0.72851
 C2259 C 0.16357 0.52741 0.73284
 C2260 C 0.17308 0.53581 0.74085
 C2261 C 0.18663 0.53068 0.74447
 C2262 C 0.19097 0.51704 0.73998
 C2263 C 0.18127 0.50851 0.73215
 C2264 C 0.16766 0.51362 0.72866
 H2265 H 0.09549 0.52237 0.70286
 H2266 H 0.11778 0.51212 0.71210
 H2267 H 0.13392 0.55437 0.72104
 H2268 H 0.11206 0.56473 0.71130
 H2269 H 0.17007 0.54647 0.74409
 H2270 H 0.19385 0.53758 0.75042
 H2271 H 0.18427 0.49796 0.72854
 H2272 H 0.16049 0.50695 0.72241
 C2273 C 0.12191 0.06966 0.20317
 C2274 C 0.13478 0.06507 0.20923
 C2275 C 0.13788 0.05051 0.21018
 C2276 C 0.12791 0.04051 0.20486
 C2277 C 0.11496 0.04509 0.19886
 C2278 C 0.11176 0.05974 0.19803
 N2279 N 0.15116 0.04625 0.21659
 N2280 N 0.15518 0.03329 0.21700
 C2281 C 0.16851 0.02915 0.22338
 C2282 C 0.17327 0.01514 0.22153
 C2283 C 0.18655 0.01093 0.22696
 C2284 C 0.19528 0.02064 0.23454
 C2285 C 0.19029 0.03459 0.23678
 C2286 C 0.17705 0.03885 0.23118
 H2287 H 0.11994 0.08102 0.20246
 H2288 H 0.14241 0.07289 0.21319
 H2289 H 0.13005 0.02918 0.20549
 H2290 H 0.10732 0.03717 0.19515
 H2291 H 0.16678 0.00756 0.21560
 H2292 H 0.19006 0.00009 0.22508
 H2293 H 0.19679 0.04235 0.24248
 H2294 H 0.17358 0.04973 0.23282
 C2295 C 0.63198 0.70395 0.18942
 C2296 C 0.61879 0.70915 0.19393
 C2297 C 0.61536 0.70942 0.20848
 C2298 C 0.62535 0.70444 0.21860
 C2299 C 0.63865 0.69935 0.21411
 C2300 C 0.64214 0.69907 0.19946
 N2301 N 0.60168 0.71478 0.21260
 N2302 N 0.59707 0.71405 0.22539
 C2303 C 0.58328 0.71944 0.22917
 C2304 C 0.57763 0.71613 0.24263
 C2305 C 0.56388 0.72057 0.24632
 C2306 C 0.55561 0.72862 0.23663
 C2307 C 0.56150 0.73230 0.22328
 C2308 C 0.57517 0.72769 0.21954
 H2309 H 0.63415 0.70362 0.17804
 H2310 H 0.61114 0.71288 0.18603
 H2311 H 0.62294 0.70460 0.22993
 H2312 H 0.64628 0.69583 0.22213
 H2313 H 0.58378 0.70981 0.25016
 H2314 H 0.55966 0.71760 0.25670
 H2315 H 0.55538 0.73841 0.21554
 H2316 H 0.57933 0.73046 0.20909
 C2317 C 0.14235 0.70269 0.71316
 C2318 C 0.12985 0.70844 0.71886
 C2319 C 0.11891 0.71323 0.70982
 C2320 C 0.12069 0.71239 0.69490
 C2321 C 0.13314 0.70650 0.68916
 C2322 C 0.14407 0.70143 0.69822
 N2323 N 0.10591 0.71834 0.71604
 N2324 N 0.09619 0.72427 0.70856
 C2325 C 0.08292 0.72883 0.71460
 C2326 C 0.07359 0.73691 0.70615
 C2327 C 0.06027 0.74100 0.71144
 C2328 C 0.05594 0.73689 0.72528
 C2329 C 0.06539 0.72884 0.73380
 C2330 C 0.07880 0.72491 0.72854
 H2331 H 0.15064 0.69916 0.72046
 H2332 H 0.12862 0.70907 0.73038
 H2333 H 0.11234 0.71594 0.68767
 H2334 H 0.13398 0.70552 0.67764
 H2335 H 0.07660 0.73993 0.69537
 H2336 H 0.05322 0.74708 0.70453
 H2337 H 0.06237 0.72551 0.74449
 H2338 H 0.08581 0.71858 0.73526
 C2339 C 0.61362 0.18950 0.53887
 C2340 C 0.62670 0.19457 0.53372
 C2341 C 0.63022 0.20905 0.53473
 C2342 C 0.62040 0.21854 0.54084
 C2343 C 0.60723 0.21351 0.54590
 C2344 C 0.60370 0.19891 0.54502
 N2345 N 0.64387 0.21375 0.52959
 N2346 N 0.64849 0.22643 0.53142
 C2347 C 0.66223 0.23089 0.52630
 C2348 C 0.66756 0.24430 0.53030
 C2349 C 0.68118 0.24872 0.52596
 C2350 C 0.68965 0.23983 0.51736
 C2351 C 0.68413 0.22648 0.51310
 C2352 C 0.67058 0.22202 0.51758
 H2353 H 0.61141 0.17816 0.53827
 H2354 H 0.63422 0.18714 0.52909
 H2355 H 0.62287 0.22982 0.54167
 H2356 H 0.59977 0.22107 0.55039
 H2357 H 0.66122 0.25125 0.53699
 H2358 H 0.68509 0.25908 0.52939
 H2359 H 0.69040 0.21934 0.50656
 H2360 H 0.66668 0.21162 0.51430
 C2361 C 0.61781 0.68531 0.04127
 C2362 C 0.63067 0.69014 0.03537
 C2363 C 0.63415 0.70467 0.03546
 C2364 C 0.62444 0.71444 0.04131
 C2365 C 0.61149 0.70965 0.04709
 C2366 C 0.60805 0.69500 0.04726
 N2367 N 0.64771 0.70915 0.02987
 N2368 N 0.65232 0.72188 0.03127
 C2369 C 0.66597 0.72635 0.02590
 C2370 C 0.67124 0.73982 0.02973
 C2371 C 0.68480 0.74428 0.02530
 C2372 C 0.69329 0.73537 0.01675
 C2373 C 0.68784 0.72196 0.01260
 C2374 C 0.67432 0.71744 0.01721
 H2375 H 0.61567 0.67394 0.04143
 H2376 H 0.63809 0.68249 0.03095
 H2377 H 0.62685 0.72576 0.04142
 H2378 H 0.60415 0.71744 0.05138
 H2379 H 0.66490 0.74679 0.03640
 H2380 H 0.68866 0.75469 0.02862
 H2381 H 0.69415 0.71482 0.00609
 H2382 H 0.67046 0.70698 0.01408
 C2383 C 0.13360 0.03716 0.06032
 C2384 C 0.12072 0.03129 0.05550
 C2385 C 0.11568 0.03417 0.04174
 C2386 C 0.12381 0.04289 0.03261
 C2387 C 0.13682 0.04872 0.03733
 C2388 C 0.14201 0.04605 0.05137
 N2389 N 0.10213 0.02834 0.03753
 N2390 N 0.09600 0.03149 0.02575
 C2391 C 0.08227 0.02564 0.02207
 C2392 C 0.07514 0.03072 0.00990
 C2393 C 0.06141 0.02576 0.00650
 C2394 C 0.05462 0.01549 0.01520
 C2395 C 0.06197 0.01018 0.02724
 C2396 C 0.07564 0.01523 0.03067
 H2397 H 0.13642 0.03517 0.07138
 H2398 H 0.11444 0.02470 0.06268
 H2399 H 0.12014 0.04515 0.02182
 H2400 H 0.14289 0.05495 0.02971
 H2401 H 0.08014 0.03874 0.00318
 H2402 H 0.05607 0.03006 -0.00287
 H2403 H 0.05706 0.00232 0.03421
 H2404 H 0.08095 0.01110 0.04014
 C2405 C 0.13678 0.55405 0.53931
 C2406 C 0.12366 0.54905 0.53421
 C2407 C 0.12035 0.53452 0.53471
 C2408 C 0.13042 0.52486 0.54024
 C2409 C 0.14370 0.52983 0.54519
 C2410 C 0.14703 0.54451 0.54479
 N2411 N 0.10664 0.53003 0.52957
 N2412 N 0.10166 0.51749 0.53136
 C2413 C 0.08776 0.51378 0.52598
 C2414 C 0.08115 0.50115 0.53059
 C2415 C 0.06719 0.49784 0.52617
 C2416 C 0.05974 0.50707 0.51689
 C2417 C 0.06661 0.51952 0.51197
 C2418 C 0.08044 0.52286 0.51651
 H2419 H 0.13877 0.56544 0.53918
 H2420 H 0.11592 0.55657 0.53005
 H2421 H 0.12805 0.51354 0.54065
 H2422 H 0.15140 0.52220 0.54922
 H2423 H 0.08670 0.49405 0.53788
 H2424 H 0.06221 0.48816 0.53012
 H2425 H 0.06120 0.52687 0.50484
 H2426 H 0.08534 0.53265 0.51271
 C2427 C 0.63517 0.06484 0.54286
 C2428 C 0.62310 0.05926 0.53592
 C2429 C 0.62076 0.04451 0.53538
 C2430 C 0.63087 0.03530 0.54159
 C2431 C 0.64303 0.04085 0.54840
 C2432 C 0.64526 0.05571 0.54928
 N2433 N 0.60784 0.03923 0.52894
 N2434 N 0.60409 0.02617 0.52977
 C2435 C 0.59092 0.02106 0.52370
 C2436 C 0.58613 0.00734 0.52725
 C2437 C 0.57274 0.00249 0.52256
 C2438 C 0.56399 0.01125 0.51401
 C2439 C 0.56910 0.02481 0.50994
 C2440 C 0.58241 0.02972 0.51482
 H2441 H 0.63639 0.07632 0.54351
 H2442 H 0.61535 0.06646 0.53123
 H2443 H 0.62933 0.02384 0.54123
 H2444 H 0.65070 0.03351 0.55299
 H2445 H 0.59260 0.00056 0.53407
 H2446 H 0.56912 -0.00802 0.52583
 H2447 H 0.56259 0.03186 0.50344
 H2448 H 0.58592 0.04035 0.51187
 C2449 C 0.64068 0.55838 0.03306
 C2450 C 0.62779 0.55349 0.02717
 C2451 C 0.62431 0.53896 0.02748
 C2452 C 0.63414 0.52921 0.03328
 C2453 C 0.64712 0.53406 0.03904
 C2454 C 0.65044 0.54874 0.03924
 N2455 N 0.61051 0.53451 0.02242
 N2456 N 0.60578 0.52188 0.02431
 C2457 C 0.59176 0.51766 0.01966
 C2458 C 0.58638 0.50436 0.02391
 C2459 C 0.57237 0.50033 0.02041
 C2460 C 0.56356 0.50952 0.01241
 C2461 C 0.56915 0.52272 0.00779
 C2462 C 0.58310 0.52678 0.01144
 H2463 H 0.64274 0.56976 0.03323
 H2464 H 0.62028 0.56110 0.02276
 H2465 H 0.63172 0.51790 0.03352
 H2466 H 0.65449 0.52633 0.04345
 H2467 H 0.59296 0.49723 0.03025
 H2468 H 0.56842 0.49007 0.02408
 H2469 H 0.56263 0.53008 0.00167
 H2470 H 0.58703 0.53712 0.00800
 C2471 C 0.04368 0.06392 0.13497
 C2472 C 0.03755 0.05817 0.12257
 C2473 C 0.04062 0.04426 0.11833
 C2474 C 0.05001 0.03605 0.12667
 C2475 C 0.05615 0.04173 0.13919
 C2476 C 0.05304 0.05582 0.14371
 N2477 N 0.03402 0.03891 0.10550
 N2478 N 0.03682 0.02673 0.10018
 C2479 C 0.02995 0.02185 0.08727
 C2480 C 0.03458 0.00922 0.08082
 C2481 C 0.02846 0.00454 0.06791
 C2482 C 0.01746 0.01240 0.06127
 C2483 C 0.01264 0.02493 0.06796
 C2484 C 0.01884 0.02963 0.08078
 H2485 H 0.04138 0.07498 0.13723
 H2486 H 0.03047 0.06469 0.11611
 H2487 H 0.05248 0.02519 0.12362
 H2488 H 0.06285 0.03475 0.14551
 H2489 H 0.04311 0.00310 0.08570
 H2490 H 0.03244 -0.00514 0.06306
 H2491 H 0.00426 0.03130 0.06314
 H2492 H 0.01502 0.03941 0.08556
 C2493 C 0.03092 0.54560 0.64662
 C2494 C 0.02517 0.54038 0.63378
 C2495 C 0.03407 0.53457 0.62332
 C2496 C 0.04888 0.53400 0.62584
 C2497 C 0.05467 0.53937 0.63860
 C2498 C 0.04578 0.54527 0.64916
 N2499 N 0.02789 0.52970 0.61009
 N2500 N 0.03508 0.52275 0.60092
 C2501 C 0.02914 0.51832 0.58744
 C2502 C 0.03707 0.50923 0.57870
 C2503 C 0.03185 0.50513 0.56524
 C2504 C 0.01863 0.51025 0.56021
 C2505 C 0.01063 0.51932 0.56906
 C2506 C 0.01579 0.52327 0.58260
 H2507 H 0.02372 0.54985 0.65458
 H2508 H 0.01373 0.54087 0.63196
 H2509 H 0.05601 0.52968 0.61786
 H2510 H 0.06617 0.53917 0.64004
 H2511 H 0.04740 0.50540 0.58229
 H2512 H 0.03834 0.49823 0.55865
 H2513 H 0.00040 0.52343 0.56551
 H2514 H 0.00949 0.53037 0.58914
 C2515 C 0.53459 0.05620 0.64201
 C2516 C 0.52880 0.05095 0.62920
 C2517 C 0.53701 0.04257 0.62006
 C2518 C 0.55120 0.03952 0.62384
 C2519 C 0.55709 0.04482 0.63657
 C2520 C 0.54893 0.05330 0.64601
 N2521 N 0.53081 0.03742 0.60694
 N2522 N 0.53738 0.02860 0.59900
 C2523 C 0.53169 0.02349 0.58568
 C2524 C 0.53924 0.01299 0.57831
 C2525 C 0.53437 0.00802 0.56505
 C2526 C 0.52184 0.01357 0.55881
 C2527 C 0.51417 0.02406 0.56630
 C2528 C 0.51903 0.02895 0.57966
 H2529 H 0.52750 0.06208 0.64893
 H2530 H 0.51779 0.05330 0.62645
 H2531 H 0.55786 0.03321 0.61684
 H2532 H 0.56827 0.04268 0.63852
 H2533 H 0.54902 0.00873 0.58283
 H2534 H 0.54061 0.00000 0.55959
 H2535 H 0.50450 0.02856 0.56181
 H2536 H 0.51303 0.03712 0.58517
 C2537 C 0.52875 0.54203 0.14758
 C2538 C 0.52364 0.53752 0.13420
 C2539 C 0.53292 0.53140 0.12425
 C2540 C 0.54744 0.52983 0.12783
 C2541 C 0.55258 0.53444 0.14112
 C2542 C 0.54331 0.54061 0.15118
 N2543 N 0.52747 0.52717 0.11050
 N2544 N 0.53513 0.52037 0.10160
 C2545 C 0.53006 0.51640 0.08765
 C2546 C 0.53867 0.50777 0.07909
 C2547 C 0.53430 0.50399 0.06527
 C2548 C 0.52123 0.50894 0.05967
 C2549 C 0.51256 0.51759 0.06833
 C2550 C 0.51691 0.52125 0.08223
 H2551 H 0.52129 0.54657 0.15513
 H2552 H 0.51242 0.53878 0.13158
 H2553 H 0.55486 0.52525 0.12027
 H2554 H 0.56390 0.53345 0.14339
 H2555 H 0.54886 0.50401 0.08315
 H2556 H 0.54128 0.49738 0.05888
 H2557 H 0.50242 0.52156 0.06436
 H2558 H 0.51009 0.52799 0.08864
 C2559 C 0.21809 0.54689 0.60430
 C2560 C 0.22370 0.54182 0.61725
 C2561 C 0.21464 0.53625 0.62778
 C2562 C 0.19982 0.53586 0.62525
 C2563 C 0.19418 0.54105 0.61238
 C2564 C 0.20325 0.54661 0.60173
 N2565 N 0.22068 0.53139 0.64103
 N2566 N 0.21322 0.52492 0.65041
 C2567 C 0.21908 0.52046 0.66388
 C2568 C 0.21057 0.51235 0.67315
 C2569 C 0.21576 0.50829 0.68662
 C2570 C 0.22956 0.51244 0.69110
 C2571 C 0.23814 0.52047 0.68168
 C2572 C 0.23298 0.52440 0.66817
 H2573 H 0.22539 0.55092 0.59626
 H2574 H 0.23515 0.54218 0.61907
 H2575 H 0.19258 0.53174 0.63329
 H2576 H 0.18269 0.54092 0.61089
 H2577 H 0.19983 0.50928 0.66997
 H2578 H 0.20884 0.50218 0.69363
 H2579 H 0.24883 0.52380 0.68478
 H2580 H 0.23975 0.53070 0.66120
 C2581 C 0.18991 0.03928 0.11528
 C2582 C 0.19544 0.03358 0.12792
 C2583 C 0.20943 0.03657 0.13217
 C2584 C 0.21799 0.04544 0.12358
 C2585 C 0.21251 0.05119 0.11082
 C2586 C 0.19833 0.04816 0.10632
 N2587 N 0.21445 0.03068 0.14542
 N2588 N 0.22684 0.03324 0.15053
 C2589 C 0.23130 0.02740 0.16402
 C2590 C 0.24437 0.03175 0.16994
 C2591 C 0.24850 0.02706 0.18357
 C2592 C 0.23961 0.01782 0.19149
 C2593 C 0.22671 0.01305 0.18528
 C2594 C 0.22257 0.01783 0.17169
 H2595 H 0.17876 0.03713 0.11301
 H2596 H 0.18867 0.02694 0.13460
 H2597 H 0.22891 0.04787 0.12667
 H2598 H 0.21967 0.05755 0.10433
 H2599 H 0.25121 0.03909 0.16413
 H2600 H 0.25853 0.03091 0.18801
 H2601 H 0.21960 0.00597 0.19108
 H2602 H 0.21242 0.01424 0.16732
 C2603 C 0.70985 0.19285 0.63839
 C2604 C 0.71533 0.19739 0.62526
 C2605 C 0.71466 0.21177 0.62131
 C2606 C 0.70877 0.22171 0.63084
 C2607 C 0.70341 0.21721 0.64407
 C2608 C 0.70374 0.20269 0.64794
 N2609 N 0.71969 0.21588 0.60745
 N2610 N 0.71770 0.22832 0.60235
 C2611 C 0.72261 0.23225 0.58838
 C2612 C 0.71860 0.24545 0.58268
 C2613 C 0.72284 0.24941 0.56889
 C2614 C 0.73133 0.24023 0.56062
 C2615 C 0.73550 0.22704 0.56647
 C2616 C 0.73114 0.22305 0.58021
 H2617 H 0.71004 0.18156 0.64088
 H2618 H 0.71981 0.18964 0.61797
 H2619 H 0.70824 0.23292 0.62805
 H2620 H 0.69900 0.22510 0.65125
 H2621 H 0.71203 0.25262 0.58889
 H2622 H 0.71949 0.25966 0.56472
 H2623 H 0.74198 0.21970 0.56037
 H2624 H 0.73439 0.21278 0.58440
 C2625 C 0.70148 0.71768 0.14495
 C2626 C 0.70668 0.72367 0.13226
 C2627 C 0.71234 0.71496 0.12155
 C2628 C 0.71291 0.70013 0.12373
 C2629 C 0.70762 0.69411 0.13636
 C2630 C 0.70174 0.70281 0.14708
 N2631 N 0.71704 0.72136 0.10843
 N2632 N 0.72328 0.71416 0.09878
 C2633 C 0.72762 0.72031 0.08543
 C2634 C 0.73582 0.71212 0.07607
 C2635 C 0.73999 0.71764 0.06282
 C2636 C 0.73587 0.73146 0.05862
 C2637 C 0.72759 0.73967 0.06804
 C2638 C 0.72355 0.73417 0.08137
 H2639 H 0.69723 0.72470 0.15308
 H2640 H 0.70622 0.73512 0.13072
 H2641 H 0.71717 0.69316 0.11556
 H2642 H 0.70777 0.68261 0.13754
 H2643 H 0.73895 0.70140 0.07906
 H2644 H 0.74627 0.71099 0.05578
 H2645 H 0.72426 0.75035 0.06512
 H2646 H 0.71714 0.74068 0.08842
 C2647 C 0.56437 0.70308 0.11690
 C2648 C 0.55938 0.70887 0.12974
 C2649 C 0.54472 0.70927 0.13261
 C2650 C 0.53500 0.70404 0.12233
 C2651 C 0.53995 0.69837 0.10942
 C2652 C 0.55471 0.69769 0.10659
 N2653 N 0.54002 0.71480 0.14609
 N2654 N 0.52707 0.71380 0.15015
 C2655 C 0.52242 0.71918 0.16371
 C2656 C 0.50869 0.71568 0.16853
 C2657 C 0.50409 0.72015 0.18203
 C2658 C 0.51311 0.72842 0.19087
 C2659 C 0.52677 0.73224 0.18583
 C2660 C 0.53142 0.72760 0.17241
 H2661 H 0.57579 0.70254 0.11520
 H2662 H 0.56698 0.71284 0.13759
 H2663 H 0.52359 0.70434 0.12425
 H2664 H 0.53220 0.69459 0.10163
 H2665 H 0.50165 0.70922 0.16191
 H2666 H 0.49350 0.71706 0.18558
 H2667 H 0.53401 0.73852 0.19241
 H2668 H 0.54207 0.73050 0.16890
 C2669 C 0.06154 0.70785 0.61302
 C2670 C 0.05579 0.71421 0.62518
 C2671 C 0.04103 0.71419 0.62739
 C2672 C 0.03194 0.70789 0.61713
 C2673 C 0.03768 0.70168 0.60480
 C2674 C 0.05257 0.70152 0.60263
 N2675 N 0.03569 0.72042 0.64027
 N2676 N 0.02277 0.71908 0.64429
 C2677 C 0.01803 0.72532 0.65744
 C2678 C 0.00498 0.72094 0.66332
 C2679 C 0.00079 0.72587 0.67681
 C2680 C 0.00955 0.73547 0.68451
 C2681 C 0.02234 0.74032 0.67826
 C2682 C 0.02658 0.73524 0.66490
 H2683 H 0.07306 0.70766 0.61190
 H2684 H 0.06289 0.71896 0.63308
 H2685 H 0.02047 0.70783 0.61861
 H2686 H 0.03044 0.69709 0.59694
 H2687 H -0.00172 0.71332 0.65766
 H2688 H -0.00913 0.72196 0.68132
 H2689 H 0.02937 0.74765 0.68390
 H2690 H 0.03667 0.73887 0.66053
 C2691 C 0.55695 0.60651 0.21338
 C2692 C 0.55269 0.61975 0.21868
 C2693 C 0.53830 0.62368 0.21828
 C2694 C 0.52809 0.61412 0.21265
 C2695 C 0.53231 0.60081 0.20745
 C2696 C 0.54681 0.59686 0.20771
 N2697 N 0.53441 0.63750 0.22346
 N2698 N 0.52181 0.64237 0.22211
 C2699 C 0.51806 0.65629 0.22714
 C2700 C 0.50471 0.66186 0.22342
 C2701 C 0.50102 0.67570 0.22749
 C2702 C 0.51061 0.68416 0.23552
 C2703 C 0.52387 0.67837 0.23959
 C2704 C 0.52761 0.66458 0.23537
 H2705 H 0.56822 0.60394 0.21351
 H2706 H 0.56066 0.62706 0.22293
 H2707 H 0.51687 0.61692 0.21229
 H2708 H 0.52422 0.59356 0.20335
 H2709 H 0.49726 0.65556 0.21711
 H2710 H 0.49069 0.67982 0.22424
 H2711 H 0.53152 0.68463 0.24573
 H2712 H 0.53798 0.66047 0.23842
 C2713 C 0.04753 0.60510 0.71973
 C2714 C 0.04256 0.61811 0.72508
 C2715 C 0.03733 0.62858 0.71576
 C2716 C 0.03719 0.62594 0.70094
 C2717 C 0.04231 0.61304 0.69556
 C2718 C 0.04753 0.60242 0.70488
 N2719 N 0.03247 0.64188 0.72151
 N2720 N 0.02569 0.65082 0.71381
 C2721 C 0.02111 0.66439 0.71911
 C2722 C 0.01207 0.67266 0.71054
 C2723 C 0.00779 0.68618 0.71505
 C2724 C 0.01266 0.69177 0.72820
 C2725 C 0.02170 0.68340 0.73685
 C2726 C 0.02583 0.66977 0.73239
 H2727 H 0.05126 0.59712 0.72724
 H2728 H 0.04272 0.62000 0.73653
 H2729 H 0.03334 0.63393 0.69349
 H2730 H 0.04243 0.61151 0.68406
 H2731 H 0.00842 0.66865 0.70027
 H2732 H 0.00092 0.69237 0.70807
 H2733 H 0.02563 0.68740 0.74703
 H2734 H 0.03290 0.66357 0.73916
 C2735 C 0.05623 0.13616 0.03712
 C2736 C 0.05193 0.12259 0.03258
 C2737 C 0.03820 0.11751 0.03549
 C2738 C 0.02862 0.12627 0.04287
 C2739 C 0.03281 0.13992 0.04734
 C2740 C 0.04678 0.14519 0.04466
 N2741 N 0.03433 0.10342 0.03091
 N2742 N 0.02257 0.09750 0.03445
 C2743 C 0.01881 0.08339 0.02979
 C2744 C 0.00648 0.07692 0.03526
 C2745 C 0.00263 0.06308 0.03108
 C2746 C 0.01102 0.05553 0.02121
 C2747 C 0.02336 0.06213 0.01565
 C2748 C 0.02725 0.07591 0.01993
 H2749 H 0.06724 0.13912 0.03520
 H2750 H 0.05946 0.11586 0.02699
 H2751 H 0.01784 0.12264 0.04507
 H2752 H 0.02479 0.14641 0.05246
 H2753 H -0.00011 0.08258 0.04286
 H2754 H -0.00696 0.05834 0.03555
 H2755 H 0.03010 0.05660 0.00808
 H2756 H 0.03684 0.08070 0.01553
 C2757 C 0.03866 0.64000 0.54923
 C2758 C 0.03257 0.62711 0.54469
 C2759 C 0.04123 0.61569 0.54068
 C2760 C 0.05619 0.61734 0.54115
 C2761 C 0.06232 0.63020 0.54582
 C2762 C 0.05363 0.64166 0.55002
 N2763 N 0.03459 0.60252 0.53641
 N2764 N 0.04172 0.59224 0.53121
 C2765 C 0.03516 0.57897 0.52716
 C2766 C 0.04322 0.56907 0.51950
 C2767 C 0.03719 0.55604 0.51530
 C2768 C 0.02298 0.55258 0.51889
 C2769 C 0.01495 0.56246 0.52677
 C2770 C 0.02095 0.57560 0.53080
 H2771 H 0.03164 0.64867 0.55210
 H2772 H 0.02103 0.62600 0.54431
 H2773 H 0.06312 0.60864 0.53816
 H2774 H 0.07386 0.63103 0.54648
 H2775 H 0.05419 0.57150 0.51669
 H2776 H 0.04372 0.54862 0.50935
 H2777 H 0.00399 0.56010 0.52970
 H2778 H 0.01454 0.58307 0.53681
 C2779 C 0.52980 0.14278 0.54205
 C2780 C 0.52410 0.12989 0.53699
 C2781 C 0.53308 0.11936 0.53147
 C2782 C 0.54789 0.12195 0.53089
 C2783 C 0.55361 0.13474 0.53608
 C2784 C 0.54467 0.14529 0.54184
 N2785 N 0.52709 0.10592 0.52714
 N2786 N 0.53458 0.09662 0.52073
 C2787 C 0.52915 0.08280 0.51698
 C2788 C 0.53765 0.07386 0.50864
 C2789 C 0.53318 0.05997 0.50551
 C2790 C 0.52013 0.05468 0.51083
 C2791 C 0.51149 0.06376 0.51905
 C2792 C 0.51593 0.07774 0.52205
 H2793 H 0.52258 0.15074 0.54622
 H2794 H 0.51267 0.12803 0.53748
 H2795 H 0.55508 0.11393 0.52679
 H2796 H 0.56511 0.13615 0.53601
 H2797 H 0.54789 0.07763 0.50474
 H2798 H 0.54016 0.05326 0.49923
 H2799 H 0.50138 0.06002 0.52330
 H2800 H 0.50921 0.08445 0.52860
 C2801 C 0.53427 0.63895 0.05161
 C2802 C 0.52793 0.62630 0.04664
 C2803 C 0.53627 0.61568 0.04035
 C2804 C 0.55110 0.61781 0.03915
 C2805 C 0.55747 0.63033 0.04426
 C2806 C 0.54915 0.64110 0.05054
 N2807 N 0.52958 0.60272 0.03553
 N2808 N 0.53634 0.59378 0.02790
 C2809 C 0.53029 0.58046 0.02330
 C2810 C 0.53800 0.57219 0.01361
 C2811 C 0.53293 0.55879 0.00940
 C2812 C 0.52005 0.55331 0.01497
 C2813 C 0.51220 0.56173 0.02459
 C2814 C 0.51725 0.57525 0.02868
 H2815 H 0.52749 0.64707 0.05619
 H2816 H 0.51648 0.62480 0.04763
 H2817 H 0.55782 0.60969 0.03447
 H2818 H 0.56898 0.63144 0.04354
 H2819 H 0.54808 0.57608 0.00944
 H2820 H 0.53932 0.55259 0.00206
 H2821 H 0.50227 0.55782 0.02908
 H2822 H 0.51115 0.58146 0.03625
 C2823 C 0.70785 0.12139 0.56766
 C2824 C 0.71371 0.13434 0.56299
 C2825 C 0.71269 0.13841 0.54863
 C2826 C 0.70598 0.12920 0.53883
 C2827 C 0.70019 0.11619 0.54340
 C2828 C 0.70081 0.11202 0.55799
 N2829 N 0.71834 0.15201 0.54434
 N2830 N 0.71641 0.15700 0.53178
 C2831 C 0.72190 0.17066 0.52749
 C2832 C 0.71795 0.17615 0.51410
 C2833 C 0.72271 0.18965 0.50977
 C2834 C 0.73168 0.19785 0.51873
 C2835 C 0.73583 0.19218 0.53209
 C2836 C 0.73095 0.17874 0.53646
 H2837 H 0.70832 0.11923 0.57904
 H2838 H 0.71880 0.14140 0.57069
 H2839 H 0.70525 0.13201 0.52759
 H2840 H 0.69565 0.10931 0.53526
 H2841 H 0.71100 0.17002 0.50709
 H2842 H 0.71933 0.19368 0.49941
 H2843 H 0.74266 0.19824 0.53930
 H2844 H 0.73417 0.17471 0.54686
 C2845 C 0.72215 0.60683 0.04868
 C2846 C 0.72823 0.61978 0.04423
 C2847 C 0.71979 0.63022 0.03767
 C2848 C 0.70510 0.62761 0.03567
 C2849 C 0.69898 0.61477 0.04023
 C2850 C 0.70742 0.60419 0.04676
 N2851 N 0.72622 0.64347 0.03337
 N2852 N 0.71934 0.65253 0.02591
 C2853 C 0.72520 0.66606 0.02177
 C2854 C 0.71729 0.67468 0.01247
 C2855 C 0.72230 0.68820 0.00861
 C2856 C 0.73535 0.69344 0.01413
 C2857 C 0.74338 0.68468 0.02340
 C2858 C 0.73837 0.67107 0.02715
 H2859 H 0.72899 0.59886 0.05351
 H2860 H 0.73957 0.62165 0.04584
 H2861 H 0.69829 0.63558 0.03076
 H2862 H 0.68757 0.61326 0.03886
 H2863 H 0.70710 0.67095 0.00830
 H2864 H 0.71578 0.69467 0.00154
 H2865 H 0.75344 0.68839 0.02786
 H2866 H 0.74465 0.66459 0.03442
 C2867 C 0.18748 0.63263 0.70787
 C2868 C 0.19249 0.62004 0.71410
 C2869 C 0.20705 0.61674 0.71380
 C2870 C 0.21668 0.62637 0.70743
 C2871 C 0.21172 0.63907 0.70133
 C2872 C 0.19703 0.64231 0.70136
 N2873 N 0.21167 0.60343 0.71974
 N2874 N 0.22431 0.59876 0.71812
 C2875 C 0.22867 0.58529 0.72391
 C2876 C 0.24170 0.57946 0.71958
 C2877 C 0.24578 0.56588 0.72427
 C2878 C 0.23695 0.55800 0.73357
 C2879 C 0.22409 0.56411 0.73828
 C2880 C 0.21995 0.57759 0.73343
 H2881 H 0.17609 0.63462 0.70788
 H2882 H 0.18496 0.61266 0.71893
 H2883 H 0.22802 0.62409 0.70716
 H2884 H 0.21940 0.64638 0.69665
 H2885 H 0.24853 0.58530 0.71226
 H2886 H 0.25576 0.56149 0.72048
 H2887 H 0.21701 0.55829 0.74538
 H2888 H 0.20985 0.58190 0.73699
 C2889 C 0.19458 0.14115 0.21520
 C2890 C 0.19977 0.12846 0.22105
 C2891 C 0.21359 0.12387 0.21803
 C2892 C 0.22244 0.13234 0.20937
 C2893 C 0.21735 0.14512 0.20358
 C2894 C 0.20319 0.14973 0.20616
 N2895 N 0.21815 0.11038 0.22354
 N2896 N 0.22996 0.10469 0.22008
 C2897 C 0.23401 0.09097 0.22549
 C2898 C 0.24626 0.08437 0.22013
 C2899 C 0.24994 0.07060 0.22459
 C2900 C 0.24142 0.06325 0.23460
 C2901 C 0.22932 0.07009 0.24022
 C2902 C 0.22563 0.08379 0.23569
 H2903 H 0.18351 0.14363 0.21726
 H2904 H 0.19282 0.12194 0.22765
 H2905 H 0.23328 0.12908 0.20707
 H2906 H 0.22478 0.15145 0.19738
 H2907 H 0.25281 0.08981 0.21226
 H2908 H 0.25933 0.06565 0.22007
 H2909 H 0.22249 0.06477 0.24792
 H2910 H 0.21613 0.08866 0.24004
 C2911 C 0.69738 1.14627 0.72123
 C2912 C 0.70261 1.13374 0.72747
 C2913 C 0.71140 1.12459 0.71970
 C2914 C 0.71501 1.12813 0.70557
 C2915 C 0.70978 1.14057 0.69927
 C2916 C 0.70080 1.14997 0.70693
 N2917 N 0.71621 1.11160 0.72619
 N2918 N 0.72482 1.10329 0.71981
 C2919 C 0.72937 1.09002 0.72587
 C2920 C 0.73922 1.08175 0.71834
 C2921 C 0.74337 1.06841 0.72356
 C2922 C 0.73766 1.06307 0.73643
 C2923 C 0.72791 1.07152 0.74408
 C2924 C 0.72382 1.08489 0.73887
 H2925 H 0.69105 1.15319 0.72792
 H2926 H 0.69981 1.13116 0.73842
 H2927 H 0.72164 1.12112 0.69925
 H2928 H 0.71232 1.14229 0.68811
 H2929 H 0.74353 1.08559 0.70829
 H2930 H 0.75083 1.06218 0.71736
 H2931 H 0.72330 1.06775 0.75403
 H2932 H 0.71616 1.09109 0.74486
 C2933 C 0.71626 0.64413 0.20380
 C2934 C 0.72223 0.63142 0.20887
 C2935 C 0.71344 0.62015 0.21332
 C2936 C 0.69851 0.62177 0.21275
 C2937 C 0.69252 0.63441 0.20753
 C2938 C 0.70132 0.64573 0.20290
 N2939 N 0.71987 0.60705 0.21792
 N2940 N 0.71257 0.59709 0.22367
 C2941 C 0.71871 0.58372 0.22781
 C2942 C 0.71042 0.57412 0.23573
 C2943 C 0.71580 0.56074 0.23948
 C2944 C 0.72958 0.55662 0.23517
 C2945 C 0.73795 0.56634 0.22726
 C2946 C 0.73259 0.57982 0.22368
 H2947 H 0.72337 0.65270 0.20058
 H2948 H 0.73375 0.63032 0.20929
 H2949 H 0.69147 0.61316 0.21602
 H2950 H 0.68099 0.63514 0.20677
 H2951 H 0.69969 0.57698 0.23892
 H2952 H 0.70902 0.55349 0.24547
 H2953 H 0.74860 0.56351 0.22380
 H2954 H 0.73918 0.58705 0.21747
 C2955 C 0.56010 0.11836 0.70930
 C2956 C 0.55516 0.13128 0.71478
 C2957 C 0.54063 0.13462 0.71415
 C2958 C 0.53094 0.12473 0.70819
 C2959 C 0.53584 0.11170 0.70285
 C2960 C 0.55051 0.10839 0.70324
 N2961 N 0.53609 0.14823 0.71936
 N2962 N 0.52345 0.15286 0.71745
 C2963 C 0.51920 0.16661 0.72254
 C2964 C 0.50612 0.17225 0.71796
 C2965 C 0.50211 0.18603 0.72198
 C2966 C 0.51107 0.19434 0.73086
 C2967 C 0.52399 0.18845 0.73582
 C2968 C 0.52806 0.17475 0.73164
 H2969 H 0.57148 0.11632 0.70954
 H2970 H 0.56273 0.13885 0.71928
 H2971 H 0.51962 0.12706 0.70768
 H2972 H 0.52813 0.10420 0.69848
 H2973 H 0.49919 0.16607 0.71097
 H2974 H 0.49207 0.19023 0.71803
 H2975 H 0.53117 0.19458 0.74261
 H2976 H 0.53820 0.17060 0.73538
 C2977 C 1.05181 0.11367 0.21532
 C2978 C 1.04610 0.12620 0.22105
 C2979 C 1.03957 0.13627 0.21211
 C2980 C 1.03873 0.13364 0.19731
 C2981 C 1.04455 0.12121 0.19155
 C2982 C 1.05122 0.11107 0.20047
 N2983 N 1.03437 0.14928 0.21820
 N2984 N 1.02703 0.15811 0.21089
 C2985 C 1.02231 0.17146 0.21658
 C2986 C 1.01315 0.17991 0.20831
 C2987 C 1.00899 0.19338 0.21312
 C2988 C 1.01408 0.19872 0.22629
 C2989 C 1.02312 0.19010 0.23470
 C2990 C 1.02715 0.17656 0.22992
 H2991 H 1.05666 0.10602 0.22253
 H2992 H 1.04682 0.12809 0.23248
 H2993 H 1.03386 0.14133 0.19015
 H2994 H 1.04415 0.11973 0.18005
 H2995 H 1.00939 0.17612 0.19799
 H2996 H 1.00209 0.19975 0.20632
 H2997 H 1.02721 0.19388 0.24490
 H2998 H 1.03430 0.17024 0.23649
 C2999 C 0.19132 0.61195 0.53874
 C3000 C 0.19579 0.62504 0.53314
 C3001 C 0.21027 0.62876 0.53312
 C3002 C 0.22037 0.61914 0.53870
 C3003 C 0.21593 0.60595 0.54422
 C3004 C 0.20134 0.60221 0.54430
 N3005 N 0.21437 0.64243 0.52761
 N3006 N 0.22712 0.64712 0.52857
 C3007 C 0.23114 0.66089 0.52324
 C3008 C 0.24473 0.66623 0.52658
 C3009 C 0.24876 0.67991 0.52220
 C3010 C 0.23929 0.68844 0.51421
 C3011 C 0.22576 0.68292 0.51052
 C3012 C 0.22167 0.66926 0.51507
 H3013 H 0.17998 0.60956 0.53892
 H3014 H 0.18791 0.63241 0.52896
 H3015 H 0.23165 0.62178 0.53876
 H3016 H 0.22391 0.59864 0.54828
 H3017 H 0.25211 0.65986 0.53283
 H3018 H 0.25930 0.68383 0.52514
 H3019 H 0.21822 0.68927 0.50443
 H3020 H 0.21110 0.66532 0.51232
 C3021 C 0.18446 0.11592 1.04625
 C3022 C 0.18909 0.12888 1.04044
 C3023 C 0.20366 0.13225 1.03996
 C3024 C 0.21365 0.12243 1.04535
 C3025 C 0.20904 0.10937 1.05105
 C3026 C 0.19437 0.10593 1.05154
 N3027 N 0.20797 0.14565 1.03389
 N3028 N 0.22080 0.15023 1.03453
 C3029 C 0.22494 0.16364 1.02835
 C3030 C 0.23848 0.16928 1.03154
 C3031 C 0.24264 0.18257 1.02609
 C3032 C 0.23338 0.19038 1.01714
 C3033 C 0.21991 0.18453 1.01369
 C3034 C 0.21569 0.17133 1.01931
 H3035 H 0.17308 0.11379 1.04671
 H3036 H 0.18129 0.13639 1.03638
 H3037 H 0.22500 0.12478 1.04503
 H3038 H 0.21698 0.10187 1.05484
 H3039 H 0.24572 0.16345 1.03846
 H3040 H 0.25310 0.18676 1.02893
 H3041 H 0.21250 0.19030 1.00689
 H3042 H 0.20519 0.16716 1.01663
 C3043 C 0.20370 0.68384 0.63055
 C3044 C 0.20988 0.68815 0.61764
 C3045 C 0.21128 0.70265 0.61433
 C3046 C 0.20643 0.71288 0.62416
 C3047 C 0.20035 0.70858 0.63717
 C3048 C 0.19894 0.69399 0.64054
 N3049 N 0.21767 0.70665 0.60097
 N3050 N 0.21796 0.71951 0.59655
 C3051 C 0.22437 0.72344 0.58318
 C3052 C 0.22229 0.73725 0.57791
 C3053 C 0.22795 0.74131 0.56467
 C3054 C 0.23602 0.73163 0.55654
 C3055 C 0.23838 0.71784 0.56202
 C3056 C 0.23253 0.71374 0.57519
 H3057 H 0.20254 0.67252 0.63264
 H3058 H 0.21351 0.68017 0.61012
 H3059 H 0.20746 0.72417 0.62187
 H3060 H 0.19698 0.71669 0.64467
 H3061 H 0.21605 0.74483 0.58397
 H3062 H 0.22598 0.75202 0.56078
 H3063 H 0.24446 0.71011 0.55599
 H3064 H 0.23434 0.70301 0.57909
 C3065 C 0.20662 0.18938 1.13490
 C3066 C 0.21174 0.19332 1.12142
 C3067 C 0.21215 0.20767 1.11734
 C3068 C 0.20749 0.21816 1.12699
 C3069 C 0.20251 0.21425 1.14056
 C3070 C 0.20199 0.19979 1.14468
 N3071 N 0.21729 0.21125 1.10335
 N3072 N 0.21636 0.22380 1.09821
 C3073 C 0.22155 0.22725 1.08420
 C3074 C 0.21822 0.24053 1.07825
 C3075 C 0.22276 0.24406 1.06444
 C3076 C 0.23093 0.23439 1.05642
 C3077 C 0.23449 0.22114 1.06253
 C3078 C 0.22978 0.21756 1.07627
 H3079 H 0.20611 0.17814 1.13756
 H3080 H 0.21524 0.18514 1.11405
 H3081 H 0.20779 0.22935 1.12409
 H3082 H 0.19922 0.22255 1.14788
 H3083 H 0.21191 0.24809 1.08426
 H3084 H 0.21990 0.25437 1.06005
 H3085 H 0.24071 0.21344 1.05660
 H3086 H 0.23254 0.20723 1.08068
 C3087 C 0.68946 0.54136 0.11145
 C3088 C 0.69347 0.53536 0.12457
 C3089 C 0.70786 0.53499 0.12868
 C3090 C 0.71830 0.54056 0.11941
 C3091 C 0.71432 0.54644 0.10621
 C3092 C 0.69983 0.54697 0.10209
 N3093 N 0.71154 0.52913 0.14239
 N3094 N 0.72414 0.53007 0.14753
 C3095 C 0.72781 0.52438 0.16131
 C3096 C 0.74105 0.52799 0.16736
 C3097 C 0.74467 0.52331 0.18112
 C3098 C 0.73515 0.51470 0.18898
 C3099 C 0.72202 0.51072 0.18271
 C3100 C 0.71832 0.51560 0.16901
 H3101 H 0.67819 0.54180 0.10875
 H3102 H 0.68533 0.53116 0.13165
 H3103 H 0.72952 0.54033 0.12233
 H3104 H 0.72260 0.55045 0.09918
 H3105 H 0.74846 0.53473 0.16151
 H3106 H 0.75489 0.52650 0.18563
 H3107 H 0.71443 0.50417 0.18854
 H3108 H 0.70804 0.51262 0.16452
 C3109 C 0.68474 1.04822 0.62169
 C3110 C 0.68913 1.04203 0.63462
 C3111 C 0.70364 1.04159 0.63832
 C3112 C 0.71380 1.04729 0.62881
 C3113 C 0.70944 1.05341 0.61583
 C3114 C 0.69485 1.05400 0.61214
 N3115 N 0.70774 1.03553 0.65183
 N3116 N 0.72062 1.03589 0.65631
 C3117 C 0.72484 1.03008 0.66989
 C3118 C 0.73881 1.03252 0.67475
 C3119 C 0.74316 1.02765 0.68823
 C3120 C 0.73361 1.02008 0.69707
 C3121 C 0.71967 1.01730 0.69201
 C3122 C 0.71529 1.02233 0.67855
 H3123 H 0.67341 1.04869 0.61930
 H3124 H 0.68119 1.03773 0.64187
 H3125 H 0.72510 1.04702 0.63139
 H3126 H 0.71751 1.05755 0.60864
 H3127 H 0.74627 1.03845 0.66816
 H3128 H 0.75398 1.02993 0.69177
 H3129 H 0.71204 1.01158 0.69859
 H3130 H 0.70443 1.02028 0.67500
 C3131 C 0.54166 0.18808 0.61175
 C3132 C 0.53604 0.19301 0.62465
 C3133 C 0.53633 0.20757 0.62792
 C3134 C 0.54230 0.21725 0.61808
 C3135 C 0.54783 0.21235 0.60508
 C3136 C 0.54756 0.19769 0.60175
 N3137 N 0.53050 0.21216 0.64130
 N3138 N 0.53161 0.22497 0.64573
 C3139 C 0.52572 0.22933 0.65916
 C3140 C 0.52924 0.24281 0.66461
 C3141 C 0.52419 0.24710 0.67801
 C3142 C 0.51533 0.23800 0.68610
 C3143 C 0.51151 0.22460 0.68041
 C3144 C 0.51671 0.22027 0.66711
 H3145 H 0.54153 0.17671 0.60968
 H3146 H 0.53153 0.18545 0.63219
 H3147 H 0.54258 0.22858 0.62036
 H3148 H 0.55211 0.22005 0.59756
 H3149 H 0.53614 0.24990 0.65858
 H3150 H 0.52730 0.25750 0.68206
 H3151 H 0.50477 0.21731 0.68639
 H3152 H 0.51377 0.20981 0.66309
 C3153 C 1.02677 0.20356 0.09972
 C3154 C 1.02090 0.20938 0.11217
 C3155 C 1.02965 0.21634 0.12219
 C3156 C 1.04443 0.21734 0.11970
 C3157 C 1.05033 0.21140 0.10738
 C3158 C 1.04158 0.20449 0.09719
 N3159 N 1.02345 0.22196 0.13500
 N3160 N 1.03062 0.22994 0.14344
 C3161 C 1.02501 0.23518 0.15666
 C3162 C 1.03331 0.24473 0.16471
 C3163 C 1.02872 0.24929 0.17815
 C3164 C 1.01574 0.24423 0.18386
 C3165 C 1.00725 0.23487 0.17558
 C3166 C 1.01183 0.23042 0.16206
 H3167 H 1.01971 0.19846 0.09203
 H3168 H 1.00949 0.20851 0.11398
 H3169 H 1.05146 0.22250 0.12738
 H3170 H 1.06180 0.21202 0.10598
 H3171 H 1.04351 0.24844 0.16065
 H3172 H 1.03557 0.25642 0.18425
 H3173 H 0.99721 0.23078 0.17965
 H3174 H 1.00525 0.22298 0.15603
 C3175 C 0.63324 0.20839 0.68889
 C3176 C 0.62010 0.21409 0.69291
 C3177 C 0.61646 0.21513 0.70737
 C3178 C 0.62617 0.21045 0.71789
 C3179 C 0.63942 0.20487 0.71389
 C3180 C 0.64312 0.20379 0.69932
 N3181 N 0.60284 0.22096 0.71100
 N3182 N 0.59794 0.22075 0.72370
 C3183 C 0.58424 0.22666 0.72699
 C3184 C 0.57808 0.22377 0.74032
 C3185 C 0.56438 0.22874 0.74350
 C3186 C 0.55672 0.23690 0.73342
 C3187 C 0.56313 0.24015 0.72021
 C3188 C 0.57673 0.23501 0.71698
 H3189 H 0.63559 0.20745 0.67758
 H3190 H 0.61266 0.21760 0.68472
 H3191 H 0.62359 0.21122 0.72916
 H3192 H 0.64684 0.20161 0.72220
 H3193 H 0.58379 0.21738 0.74814
 H3194 H 0.55975 0.22610 0.75379
 H3195 H 0.55749 0.24634 0.71219
 H3196 H 0.58130 0.23746 0.70662
 C3197 C 1.14638 0.20778 0.21821
 C3198 C 1.13363 0.21319 0.22373
 C3199 C 1.12268 0.21761 0.21451
 C3200 C 1.12464 0.21663 0.19962
 C3201 C 1.13729 0.21106 0.19409
 C3202 C 1.14831 0.20649 0.20331
 N3203 N 1.10954 0.22265 0.22045
 N3204 N 1.10014 0.22871 0.21268
 C3205 C 1.08668 0.23335 0.21816
 C3206 C 1.07801 0.24185 0.20944
 C3207 C 1.06456 0.24615 0.21412
 C3208 C 1.05941 0.24182 0.22759
 C3209 C 1.06815 0.23328 0.23638
 C3210 C 1.08174 0.22915 0.23174
 H3211 H 1.15472 0.20461 0.22563
 H3212 H 1.13227 0.21392 0.23523
 H3213 H 1.11627 0.21986 0.19226
 H3214 H 1.13825 0.20997 0.18258
 H3215 H 1.08167 0.24507 0.19892
 H3216 H 1.05806 0.25260 0.20701
 H3217 H 1.06448 0.22977 0.24680
 H3218 H 1.08825 0.22249 0.23863
 C3219 C 0.12172 0.70268 0.56019
 C3220 C 0.13478 0.70830 0.55565
 C3221 C 0.13834 0.70830 0.54113
 C3222 C 0.12866 0.70248 0.53110
 C3223 C 0.11549 0.69691 0.53563
 C3224 C 0.11182 0.69706 0.55024
 N3225 N 0.15182 0.71432 0.53697
 N3226 N 0.15640 0.71389 0.52416
 C3227 C 0.16996 0.71997 0.52032
 C3228 C 0.17545 0.71729 0.50668
 C3229 C 0.18895 0.72247 0.50285
 C3230 C 0.19714 0.73063 0.51257
 C3231 C 0.19143 0.73365 0.52614
 C3232 C 0.17799 0.72831 0.53001
 H3233 H 0.11939 0.70268 0.57155
 H3234 H 0.14219 0.71265 0.56348
 H3235 H 0.13120 0.70238 0.51979
 H3236 H 0.10807 0.69276 0.52770
 H3237 H 0.16936 0.71092 0.49910
 H3238 H 0.19302 0.71999 0.49230
 H3239 H 0.19750 0.73982 0.53390
 H3240 H 0.17394 0.73059 0.54061
 C3241 C 0.10064 0.22015 1.04112
 C3242 C 0.11375 0.22589 1.03670
 C3243 C 0.12499 0.21690 1.03286
 C3244 C 0.12296 0.20203 1.03339
 C3245 C 0.10994 0.19629 1.03792
 C3246 C 0.09862 0.20526 1.04190
 N3247 N 0.13846 0.22300 1.02878
 N3248 N 0.14839 0.21527 1.02375
 C3249 C 0.16214 0.22079 1.01992
 C3250 C 0.17153 0.21184 1.01265
 C3251 C 0.18515 0.21665 1.00892
 C3252 C 0.18973 0.23051 1.01259
 C3253 C 0.18030 0.23950 1.02000
 C3254 C 0.16655 0.23471 1.02357
 H3255 H 0.09210 0.22736 1.04393
 H3256 H 0.11517 0.23737 1.03631
 H3257 H 0.13151 0.19484 1.03058
 H3258 H 0.10891 0.18479 1.03869
 H3259 H 0.16827 0.20108 1.00987
 H3260 H 0.19217 0.20941 1.00332
 H3261 H 0.18352 0.25022 1.02296
 H3262 H 0.15946 0.24177 1.02929
 C3263 C 0.59999 0.53592 0.22478
 C3264 C 0.61308 0.53109 0.23018
 C3265 C 0.62357 0.52598 0.22090
 C3266 C 0.62071 0.52542 0.20611
 C3267 C 0.60770 0.53036 0.20069
 C3268 C 0.59725 0.53584 0.20993
 N3269 N 0.63729 0.52215 0.22657
 N3270 N 0.64680 0.51655 0.21869
 C3271 C 0.66087 0.51333 0.22381
 C3272 C 0.67010 0.50588 0.21481
 C3273 C 0.68416 0.50322 0.21905
 C3274 C 0.68932 0.50812 0.23237
 C3275 C 0.67997 0.51551 0.24147
 C3276 C 0.66582 0.51804 0.23725
 H3277 H 0.59209 0.53988 0.23221
 H3278 H 0.61515 0.53155 0.24161
 H3279 H 0.62868 0.52160 0.19869
 H3280 H 0.60608 0.53038 0.18919
 H3281 H 0.66641 0.50228 0.20440
 H3282 H 0.69108 0.49757 0.21173
 H3283 H 0.68360 0.51940 0.25180
 H3284 H 0.65887 0.52391 0.24435
 C3285 C 0.60677 1.03543 0.70294
 C3286 C 0.61951 1.02966 0.70828
 C3287 C 0.63015 1.03856 0.71403
 C3288 C 0.62793 1.05338 0.71435
 C3289 C 0.61529 1.05917 0.70890
 C3290 C 0.60452 1.05028 0.70314
 N3291 N 0.64320 1.03240 0.71919
 N3292 N 0.65253 1.03982 0.72587
 C3293 C 0.66585 1.03405 0.73075
 C3294 C 0.67483 1.04259 0.73922
 C3295 C 0.68811 1.03753 0.74380
 C3296 C 0.69273 1.02382 0.73986
 C3297 C 0.68364 1.01522 0.73139
 C3298 C 0.67028 1.02027 0.72692
 H3299 H 0.59865 1.02826 0.69875
 H3300 H 0.62108 1.01822 0.70797
 H3301 H 0.63605 1.06051 0.71860
 H3302 H 0.61409 1.07066 0.70895
 H3303 H 0.67155 1.05325 0.74218
 H3304 H 0.69488 1.04448 0.75021
 H3305 H 0.68687 1.00462 0.72816
 H3306 H 0.66353 1.01349 0.72032
 C3307 C 0.88457 0.46214 0.31273
 C3308 C 0.87153 0.46808 0.30851
 C3309 C 0.86804 0.46934 0.29398
 C3310 C 0.87792 0.46488 0.28362
 C3311 C 0.89101 0.45904 0.28781
 C3312 C 0.89443 0.45745 0.30242
 N3313 N 0.85425 0.47468 0.29003
 N3314 N 0.84985 0.47446 0.27711
 C3315 C 0.83596 0.47938 0.27302
 C3316 C 0.83122 0.47688 0.25901
 C3317 C 0.81741 0.48069 0.25484
 C3318 C 0.80813 0.48728 0.26460
 C3319 C 0.81306 0.49019 0.27856
 C3320 C 0.82685 0.48619 0.28278
 H3321 H 0.88675 0.46088 0.32406
 H3322 H 0.86398 0.47142 0.31659
 H3323 H 0.87550 0.46582 0.27230
 H3324 H 0.89846 0.45577 0.27961
 H3325 H 0.83816 0.47166 0.25140
 H3326 H 0.81396 0.47839 0.24398
 H3327 H 0.80613 0.49520 0.28633
 H3328 H 0.83032 0.48826 0.29367
 C3329 C 0.88149 0.93569 0.79609
 C3330 C 0.86875 0.94097 0.79030
 C3331 C 0.86595 0.95562 0.79046
 C3332 C 0.87614 0.96503 0.79637
 C3333 C 0.88894 0.95977 0.80207
 C3334 C 0.89175 0.94502 0.80206
 N3335 N 0.85262 0.96058 0.78475
 N3336 N 0.84873 0.97355 0.78572
 C3337 C 0.83529 0.97836 0.78012
 C3338 C 0.83076 0.99222 0.78327
 C3339 C 0.81737 0.99698 0.77862
 C3340 C 0.80832 0.98797 0.77055
 C3341 C 0.81309 0.97419 0.76706
 C3342 C 0.82642 0.96940 0.77186
 H3343 H 0.88317 0.92426 0.79611
 H3344 H 0.86095 0.93361 0.78584
 H3345 H 0.87424 0.97641 0.79655
 H3346 H 0.89670 0.96727 0.80637
 H3347 H 0.83751 0.99924 0.78961
 H3348 H 0.81404 1.00766 0.78146
 H3349 H 0.80637 0.96694 0.76094
 H3350 H 0.82970 0.95865 0.76923
 C3351 C 0.35328 0.28288 0.79109
 C3352 C 0.36575 0.27741 0.78506
 C3353 C 0.37649 0.28661 0.78015
 C3354 C 0.37452 0.30144 0.78110
 C3355 C 0.36211 0.30694 0.78726
 C3356 C 0.35141 0.29771 0.79248
 N3357 N 0.38951 0.28064 0.77490
 N3358 N 0.39912 0.28826 0.76897
 C3359 C 0.41245 0.28240 0.76439
 C3360 C 0.42169 0.29090 0.75625
 C3361 C 0.43506 0.28574 0.75217
 C3362 C 0.43950 0.27202 0.75636
 C3363 C 0.43013 0.26347 0.76447
 C3364 C 0.41668 0.26858 0.76838
 H3365 H 0.34514 0.27548 0.79475
 H3366 H 0.36713 0.26596 0.78436
 H3367 H 0.38273 0.30877 0.77746
 H3368 H 0.36113 0.31839 0.78835
 H3369 H 0.41858 0.30159 0.75318
 H3370 H 0.44205 0.29264 0.74602
 H3371 H 0.43323 0.25286 0.76786
 H3372 H 0.40974 0.26184 0.77476
 C3373 C 0.85862 0.28495 0.29838
 C3374 C 0.87114 0.27922 0.29267
 C3375 C 0.88180 0.28820 0.28721
 C3376 C 0.87980 0.30305 0.28749
 C3377 C 0.86738 0.30880 0.29333
 C3378 C 0.85663 0.29983 0.29889
 N3379 N 0.89468 0.28207 0.28176
 N3380 N 0.90387 0.28958 0.27508
 C3381 C 0.91705 0.28387 0.26994
 C3382 C 0.92561 0.29241 0.26114
 C3383 C 0.93876 0.28745 0.25629
 C3384 C 0.94371 0.27385 0.26031
 C3385 C 0.93505 0.26525 0.26914
 C3386 C 0.92178 0.27018 0.27385
 H3387 H 0.85048 0.27771 0.30235
 H3388 H 0.87254 0.26775 0.29249
 H3389 H 0.88795 0.31024 0.28345
 H3390 H 0.86636 0.32030 0.29380
 H3391 H 0.92210 0.30300 0.25812
 H3392 H 0.94519 0.29441 0.24961
 H3393 H 0.93856 0.25474 0.27244
 H3394 H 0.91535 0.26343 0.28073
 C3395 C 0.39324 0.80542 0.46261
 C3396 C 0.38035 0.80092 0.46863
 C3397 C 0.37614 0.78662 0.46783
 C3398 C 0.38505 0.77673 0.46097
 C3399 C 0.39803 0.78120 0.45499
 C3400 C 0.40226 0.79561 0.45575
 N3401 N 0.36263 0.78256 0.47375
 N3402 N 0.35757 0.76998 0.47260
 C3403 C 0.34385 0.76621 0.47824
 C3404 C 0.33801 0.75285 0.47488
 C3405 C 0.32418 0.74928 0.47922
 C3406 C 0.31599 0.75900 0.48718
 C3407 C 0.32210 0.77220 0.49103
 C3408 C 0.33589 0.77582 0.48654
 H3409 H 0.39602 0.81664 0.46313
 H3410 H 0.37352 0.80865 0.47379
 H3411 H 0.38200 0.76558 0.46022
 H3412 H 0.40480 0.77338 0.44990
 H3413 H 0.34405 0.74535 0.46852
 H3414 H 0.31980 0.73899 0.47615
 H3415 H 0.31605 0.77994 0.49709
 H3416 H 0.34022 0.78620 0.48932
 C3417 C 0.38124 0.31206 0.95532
 C3418 C 0.36863 0.30736 0.96180
 C3419 C 0.36518 0.29282 0.96214
 C3420 C 0.37464 0.28293 0.95609
 C3421 C 0.38732 0.28760 0.94969
 C3422 C 0.39073 0.30225 0.94914
 N3423 N 0.35186 0.28847 0.96833
 N3424 N 0.34742 0.27562 0.96783
 C3425 C 0.33393 0.27140 0.97372
 C3426 C 0.32879 0.25761 0.97102
 C3427 C 0.31522 0.25346 0.97574
 C3428 C 0.30662 0.26303 0.98341
 C3429 C 0.31202 0.27674 0.98652
 C3430 C 0.32553 0.28092 0.98166
 H3431 H 0.38340 0.32342 0.95488
 H3432 H 0.36138 0.31509 0.96635
 H3433 H 0.37223 0.27161 0.95628
 H3434 H 0.39449 0.27975 0.94523
 H3435 H 0.33517 0.25017 0.96493
 H3436 H 0.31141 0.24281 0.97321
 H3437 H 0.30563 0.28439 0.99234
 H3438 H 0.32930 0.29163 0.98392
 C3439 C 0.81144 0.46088 0.38488
 C3440 C 0.80733 0.46574 0.37130
 C3441 C 0.79291 0.46568 0.36723
 C3442 C 0.78254 0.46102 0.37703
 C3443 C 0.78660 0.45634 0.39068
 C3444 C 0.80113 0.45606 0.39473
 N3445 N 0.78909 0.47031 0.35309
 N3446 N 0.77661 0.46833 0.34793
 C3447 C 0.77273 0.47303 0.33383
 C3448 C 0.75968 0.46852 0.32793
 C3449 C 0.75567 0.47275 0.31412
 C3450 C 0.76460 0.48179 0.30605
 C3451 C 0.77765 0.48643 0.31208
 C3452 C 0.78172 0.48203 0.32581
 H3453 H 0.82272 0.46062 0.38753
 H3454 H 0.81542 0.46931 0.36383
 H3455 H 0.77130 0.46103 0.37418
 H3456 H 0.77835 0.45300 0.39807
 H3457 H 0.75266 0.46160 0.33403
 H3458 H 0.74555 0.46903 0.30979
 H3459 H 0.78480 0.49333 0.30611
 H3460 H 0.79185 0.48569 0.33016
 C3461 C 0.77184 0.96205 0.90414
 C3462 C 0.76645 0.96696 0.89101
 C3463 C 0.77569 0.97255 0.88065
 C3464 C 0.79041 0.97339 0.88363
 C3465 C 0.79582 0.96837 0.89665
 C3466 C 0.78663 0.96253 0.90704
 N3467 N 0.77006 0.97674 0.86697
 N3468 N 0.77790 0.98298 0.85775
 C3469 C 0.77294 0.98672 0.84372
 C3470 C 0.78194 0.99480 0.83493
 C3471 C 0.77789 0.99807 0.82090
 C3472 C 0.76475 0.99315 0.81532
 C3473 C 0.75563 0.98512 0.82423
 C3474 C 0.75967 0.98197 0.83835
 H3475 H 0.76444 0.95779 0.91196
 H3476 H 0.75508 0.96627 0.88885
 H3477 H 0.79781 0.97756 0.87576
 H3478 H 0.80728 0.96864 0.89834
 H3479 H 0.79221 0.99845 0.83894
 H3480 H 0.78521 1.00421 0.81435
 H3481 H 0.74544 0.98119 0.82027
 H3482 H 0.75258 0.97562 0.84496
 C3483 C 0.28543 0.80218 0.35700
 C3484 C 0.27972 0.79639 0.36957
 C3485 C 0.28860 0.78973 0.37964
 C3486 C 0.30337 0.78901 0.37704
 C3487 C 0.30912 0.79493 0.36457
 C3488 C 0.30022 0.80157 0.35435
 N3489 N 0.28247 0.78410 0.39252
 N3490 N 0.28964 0.77640 0.40118
 C3491 C 0.28380 0.77116 0.41436
 C3492 C 0.29188 0.76170 0.42266
 C3493 C 0.28685 0.75695 0.43593
 C3494 C 0.27365 0.76175 0.44122
 C3495 C 0.26545 0.77109 0.43273
 C3496 C 0.27044 0.77572 0.41939
 H3497 H 0.27823 0.80701 0.34930
 H3498 H 0.26832 0.79702 0.37145
 H3499 H 0.31049 0.78406 0.38474
 H3500 H 0.32058 0.79452 0.36306
 H3501 H 0.30221 0.75814 0.41891
 H3502 H 0.29349 0.74984 0.44222
 H3503 H 0.25523 0.77497 0.43646
 H3504 H 0.26401 0.78307 0.41318
 C3505 C 0.31038 0.28794 0.86291
 C3506 C 0.30588 0.28155 0.87566
 C3507 C 0.29137 0.28114 0.87918
 C3508 C 0.28130 0.28702 0.86966
 C3509 C 0.28578 0.29333 0.85684
 C3510 C 0.30039 0.29394 0.85336
 N3511 N 0.28722 0.27509 0.89265
 N3512 N 0.27440 0.27556 0.89711
 C3513 C 0.27035 0.26988 0.91076
 C3514 C 0.25661 0.27263 0.91588
 C3515 C 0.25265 0.26822 0.92961
 C3516 C 0.26235 0.26080 0.93842
 C3517 C 0.27598 0.25758 0.93304
 C3518 C 0.27999 0.26215 0.91935
 H3519 H 0.32173 0.28843 0.86069
 H3520 H 0.31374 0.27713 0.88296
 H3521 H 0.27000 0.28678 0.87212
 H3522 H 0.27779 0.29766 0.84962
 H3523 H 0.24909 0.27854 0.90935
 H3524 H 0.24204 0.27080 0.93340
 H3525 H 0.28372 0.25195 0.93958
 H3526 H 0.29066 0.25986 0.91560
 C3527 C 0.43146 0.29453 0.87777
 C3528 C 0.43569 0.28918 0.86447
 C3529 C 0.45019 0.28841 0.86096
 C3530 C 0.46051 0.29274 0.87109
 C3531 C 0.45631 0.29793 0.88444
 C3532 C 0.44173 0.29907 0.88790
 N3533 N 0.45416 0.28346 0.84703
 N3534 N 0.46694 0.28449 0.84249
 C3535 C 0.47105 0.27964 0.82857
 C3536 C 0.48477 0.28294 0.82362
 C3537 C 0.48908 0.27866 0.80998
 C3538 C 0.47974 0.27080 0.80108
 C3539 C 0.46600 0.26734 0.80615
 C3540 C 0.46166 0.27179 0.81975
 H3541 H 0.42014 0.29543 0.87997
 H3542 H 0.42763 0.28589 0.85675
 H3543 H 0.47180 0.29211 0.86868
 H3544 H 0.46451 0.30105 0.89208
 H3545 H 0.49211 0.28897 0.83033
 H3546 H 0.49975 0.28144 0.80643
 H3547 H 0.45854 0.26137 0.79953
 H3548 H 0.45099 0.26909 0.82336
 C3549 C 0.93574 0.29447 0.37777
 C3550 C 0.94053 0.28936 0.36458
 C3551 C 0.95508 0.28980 0.36119
 C3552 C 0.96489 0.29526 0.37127
 C3553 C 0.96014 0.30026 0.38453
 C3554 C 0.94548 0.30000 0.38792
 N3555 N 0.95953 0.28477 0.34743
 N3556 N 0.97230 0.28625 0.34296
 C3557 C 0.97661 0.28124 0.32914
 C3558 C 0.99022 0.28485 0.32408
 C3559 C 0.99458 0.28052 0.31045
 C3560 C 0.98541 0.27231 0.30169
 C3561 C 0.97183 0.26848 0.30693
 C3562 C 0.96744 0.27295 0.32049
 H3563 H 0.92437 0.29433 0.37989
 H3564 H 0.93286 0.28522 0.35689
 H3565 H 0.97622 0.29561 0.36892
 H3566 H 0.96796 0.30422 0.39217
 H3567 H 0.99740 0.29121 0.33065
 H3568 H 1.00512 0.28362 0.30676
 H3569 H 0.96447 0.26225 0.30044
 H3570 H 0.95687 0.26999 0.32418
 C3571 C 0.46838 0.39580 0.79793
 C3572 C 0.47441 0.38334 0.79240
 C3573 C 0.46597 0.37354 0.78480
 C3574 C 0.45135 0.37632 0.78277
 C3575 C 0.44527 0.38866 0.78841
 C3576 C 0.45370 0.39858 0.79607
 N3577 N 0.47233 0.36068 0.77960
 N3578 N 0.46558 0.35226 0.77123
 C3579 C 0.47145 0.33907 0.76635
 C3580 C 0.46386 0.33117 0.75611
 C3581 C 0.46883 0.31788 0.75162
 C3582 C 0.48146 0.31216 0.75747
 C3583 C 0.48919 0.32022 0.76764
 C3584 C 0.48426 0.33360 0.77200
 H3585 H 0.47522 0.40329 0.80359
 H3586 H 0.48570 0.38133 0.79404
 H3587 H 0.44456 0.36882 0.77706
 H3588 H 0.43389 0.39028 0.78703
 H3589 H 0.45395 0.33526 0.75172
 H3590 H 0.46256 0.31195 0.74384
 H3591 H 0.49896 0.31613 0.77234
 H3592 H 0.49029 0.33951 0.77999
 C3593 C 0.93791 0.38930 0.28893
 C3594 C 0.94250 0.37662 0.28261
 C3595 C 0.95707 0.37350 0.28179
 C3596 C 0.96713 0.38342 0.28705
 C3597 C 0.96258 0.39620 0.29321
 C3598 C 0.94790 0.39923 0.29439
 N3599 N 0.96134 0.36010 0.27588
 N3600 N 0.97414 0.35563 0.27674
 C3601 C 0.97828 0.34212 0.27095
 C3602 C 0.99182 0.33673 0.27429
 C3603 C 0.99592 0.32328 0.26936
 C3604 C 0.98657 0.31508 0.26080
 C3605 C 0.97309 0.32069 0.25718
 C3606 C 0.96895 0.33405 0.26228
 H3607 H 0.92654 0.39115 0.28986
 H3608 H 0.93465 0.36904 0.27863
 H3609 H 0.97848 0.38129 0.28641
 H3610 H 0.97056 0.40371 0.29705
 H3611 H 0.99910 0.34286 0.28096
 H3612 H 1.00638 0.31928 0.27229
 H3613 H 0.96562 0.31462 0.25067
 H3614 H 0.95843 0.33801 0.25951
 C3615 C 0.28642 0.89191 0.45271
 C3616 C 0.28061 0.87912 0.45783
 C3617 C 0.28953 0.86820 0.46271
 C3618 C 0.30444 0.87026 0.46252
 C3619 C 0.31028 0.88298 0.45723
 C3620 C 0.30135 0.89395 0.45216
 N3621 N 0.28325 0.85502 0.46740
 N3622 N 0.29057 0.84547 0.47373
 C3623 C 0.28457 0.83204 0.47801
 C3624 C 0.29271 0.82306 0.48677
 C3625 C 0.28747 0.80966 0.49076
 C3626 C 0.27402 0.80487 0.48586
 C3627 C 0.26581 0.81392 0.47708
 C3628 C 0.27101 0.82745 0.47325
 H3629 H 0.27920 0.90021 0.44918
 H3630 H 0.26911 0.87769 0.45797
 H3631 H 0.31157 0.86192 0.46614
 H3632 H 0.32181 0.88407 0.45677
 H3633 H 0.30320 0.82645 0.49044
 H3634 H 0.29414 0.80291 0.49741
 H3635 H 0.25543 0.81053 0.47312
 H3636 H 0.26456 0.83419 0.46639
 C3637 C 0.31293 0.38099 0.95619
 C3638 C 0.30773 0.36816 0.96182
 C3639 C 0.29312 0.36492 0.96122
 C3640 C 0.28365 0.37481 0.95509
 C3641 C 0.28881 0.38774 0.94958
 C3642 C 0.30354 0.39096 0.94998
 N3643 N 0.28829 0.35150 0.96681
 N3644 N 0.27555 0.34692 0.96513
 C3645 C 0.27107 0.33339 0.97081
 C3646 C 0.25778 0.32770 0.96672
 C3647 C 0.25347 0.31421 0.97158
 C3648 C 0.26233 0.30627 0.98081
 C3649 C 0.27552 0.31219 0.98516
 C3650 C 0.27987 0.32558 0.98017
 H3651 H 0.32435 0.38295 0.95646
 H3652 H 0.31514 0.36059 0.96648
 H3653 H 0.27228 0.37257 0.95460
 H3654 H 0.28125 0.39526 0.94511
 H3655 H 0.25089 0.33362 0.95953
 H3656 H 0.24325 0.30996 0.96805
 H3657 H 0.28266 0.30635 0.99218
 H3658 H 0.29017 0.32976 0.98355
 C3659 C 0.79733 0.36810 0.31226
 C3660 C 0.79197 0.38108 0.30724
 C3661 C 0.79150 0.38400 0.29255
 C3662 C 0.79630 0.37367 0.28282
 C3663 C 0.80150 0.36058 0.28781
 C3664 C 0.80213 0.35765 0.30261
 N3665 N 0.78599 0.39747 0.28788
 N3666 N 0.78706 0.40190 0.27503
 C3667 C 0.78124 0.41538 0.27072
 C3668 C 0.78481 0.42108 0.25731
 C3669 C 0.77950 0.43438 0.25302
 C3670 C 0.77032 0.44207 0.26203
 C3671 C 0.76661 0.43621 0.27540
 C3672 C 0.77207 0.42305 0.27973
 H3673 H 0.79792 0.36638 0.32372
 H3674 H 0.78832 0.38898 0.31484
 H3675 H 0.79591 0.37566 0.27139
 H3676 H 0.80487 0.35271 0.28006
 H3677 H 0.79186 0.41527 0.25025
 H3678 H 0.78253 0.43860 0.24265
 H3679 H 0.75966 0.44189 0.28265
 H3680 H 0.76910 0.41886 0.29013
   
