data_POSCAR
  _audit_creation_date              2014-09-24
  _audit_creation_method            'ToBaCCo'
  _symmetry_space_group_name_H-M    'P1'
  _symmetry_Int_Tables_number       1
  _symmetry_cell_setting            triclinic
  loop_
  _symmetry_equiv_pos_as_xyz
 x,y,z
_cell_length_a 70.6741
_cell_length_b 71.3206
_cell_length_c 71.1158
_cell_angle_alpha 89.901500
_cell_angle_beta 89.910900
_cell_angle_gamma 89.808000
loop_
  _atom_site_label
  _atom_site_type_symbol
  _atom_site_fract_x
  _atom_site_fract_y
  _atom_site_fract_z
N1 N 0.35960 1.34235 0.30602
 N2 N 0.34716 1.35606 0.30567
 C3 C 0.35115 1.36756 0.29118
 C4 C 0.36690 1.36060 0.28172
 C5 C 0.37179 1.34450 0.29164
 H6 H 0.34302 1.37993 0.28771
 H7 H 0.38357 1.33519 0.28896
 Cu8 Cu 0.32678 1.35746 0.32404
 Cu9 Cu 0.35954 1.32317 0.32554
 Cu10 Cu 0.32438 1.32623 0.35946
 N11 N 0.30720 1.35897 0.34321
 N12 N 0.30661 1.34701 0.35725
 C13 C 0.29207 1.35148 0.36865
 C14 C 0.28282 1.36707 0.36129
 C15 C 0.29292 1.37136 0.34507
 H16 H 0.28842 1.34368 0.38116
 H17 H 0.29033 1.38282 0.33547
 N18 N 0.34364 1.30622 0.35922
 N19 N 0.35714 1.30515 0.34642
 C20 C 0.36823 1.29025 0.35028
 C21 C 0.36132 1.28144 0.36621
 C22 C 0.34570 1.29193 0.37146
 H23 H 0.38034 1.28600 0.34201
 H24 H 0.33668 1.28949 0.38350
 H25 H 0.33086 1.32425 0.33124
 H26 H 0.34644 1.33955 0.34580
 N27 N 0.36030 0.84320 0.80717
 N28 N 0.34752 0.85661 0.80662
 C29 C 0.35130 0.86805 0.79202
 C30 C 0.36723 0.86139 0.78284
 C31 C 0.37255 0.84556 0.79285
 H32 H 0.34295 0.88019 0.78819
 H33 H 0.38458 0.83657 0.79009
 Cu34 Cu 0.32707 0.85772 0.82489
 Cu35 Cu 0.36034 0.82394 0.82661
 Cu36 Cu 0.32460 0.82617 0.85999
 N37 N 0.30730 0.85893 0.84387
 N38 N 0.30653 0.84668 0.85768
 C39 C 0.29181 0.85090 0.86893
 C40 C 0.28278 0.86660 0.86176
 C41 C 0.29300 0.87129 0.84582
 H42 H 0.28786 0.84299 0.88131
 H43 H 0.29038 0.88302 0.83653
 N44 N 0.34420 0.80649 0.85994
 N45 N 0.35795 0.80576 0.84738
 C46 C 0.36926 0.79104 0.85137
 C47 C 0.36223 0.78201 0.86712
 C48 C 0.34631 0.79218 0.87214
 H49 H 0.38160 0.78707 0.84330
 H50 H 0.33714 0.78953 0.88401
 H51 H 0.33157 0.82449 0.83182
 H52 H 0.34666 0.83989 0.84676
 N53 N 0.85818 1.34747 0.80585
 N54 N 0.84336 1.35859 0.80516
 C55 C 0.84508 1.37022 0.79035
 C56 C 0.86201 1.36628 0.78120
 C57 C 0.86992 1.35169 0.79157
 H58 H 0.83494 1.38101 0.78682
 H59 H 0.88315 1.34451 0.78896
 Cu60 Cu 0.82391 1.35725 0.82436
 Cu61 Cu 0.86099 1.32821 0.82517
 Cu62 Cu 0.82596 1.32613 0.85961
 N63 N 0.80469 1.35679 0.84381
 N64 N 0.80568 1.34479 0.85784
 C65 C 0.79117 1.34803 0.86974
 C66 C 0.78050 1.36279 0.86269
 C67 C 0.78954 1.36797 0.84624
 H68 H 0.78860 1.34022 0.88253
 H69 H 0.78565 1.37939 0.83702
 N70 N 0.84774 1.30864 0.85869
 N71 N 0.86117 1.30971 0.84580
 C72 C 0.87401 1.29611 0.84896
 C73 C 0.86842 1.28588 0.86452
 C74 C 0.85167 1.29420 0.87031
 H75 H 0.88634 1.29354 0.84033
 H76 H 0.84306 1.29010 0.88219
 H77 H 0.83254 1.32495 0.83138
 H78 H 0.84591 1.34211 0.84591
 N79 N 0.85932 0.84320 0.30535
 N80 N 0.84729 0.85724 0.30588
 C81 C 0.85068 0.86869 0.29117
 C82 C 0.86563 0.86133 0.28074
 C83 C 0.87062 0.84506 0.29027
 H84 H 0.84274 0.88134 0.28825
 H85 H 0.88204 0.83552 0.28695
 Cu86 Cu 0.82829 0.85902 0.32570
 Cu87 Cu 0.86057 0.82432 0.32489
 Cu88 Cu 0.82657 0.82587 0.35986
 N89 N 0.80838 0.85866 0.34466
 N90 N 0.80787 0.84596 0.35806
 C91 C 0.79287 0.84938 0.36928
 C92 C 0.78338 0.86499 0.36245
 C93 C 0.79363 0.87046 0.34678
 H94 H 0.78904 0.84101 0.38138
 H95 H 0.79070 0.88232 0.33776
 N96 N 0.84679 0.80670 0.35907
 N97 N 0.85980 0.80637 0.34576
 C98 C 0.87205 0.79234 0.34924
 C99 C 0.86651 0.78327 0.36548
 C100 C 0.85035 0.79266 0.37132
 H101 H 0.88412 0.78890 0.34055
 H102 H 0.84209 0.78974 0.38379
 H103 H 0.83183 0.82549 0.33141
 H104 H 0.84804 0.83985 0.34633
 N105 N 0.63793 0.65466 0.30768
 N106 N 0.65124 0.64177 0.30718
 C107 C 0.64787 0.63013 0.29267
 C108 C 0.63149 0.63603 0.28373
 C109 C 0.62561 0.65165 0.29365
 H110 H 0.65641 0.61803 0.28913
 H111 H 0.61331 0.66025 0.29085
 Cu112 Cu 0.67103 0.64123 0.32612
 Cu113 Cu 0.63730 0.67425 0.32655
 Cu114 Cu 0.67325 0.67436 0.35973
 N115 N 0.69093 0.64109 0.34491
 N116 N 0.69195 0.65421 0.35783
 C117 C 0.70681 0.65060 0.36911
 C118 C 0.71550 0.63425 0.36301
 C119 C 0.70502 0.62864 0.34761
 H120 H 0.71067 0.65896 0.38117
 H121 H 0.70749 0.61639 0.33902
 N122 N 0.65280 0.69336 0.35913
 N123 N 0.63902 0.69297 0.34664
 C124 C 0.62678 0.70696 0.35027
 C125 C 0.63308 0.71672 0.36578
 C126 C 0.64970 0.70778 0.37100
 H127 H 0.61417 0.70989 0.34220
 H128 H 0.65856 0.71122 0.38288
 H129 H 0.66622 0.67458 0.33170
 H130 H 0.65154 0.65964 0.34757
 N131 N 0.64110 0.15266 0.80496
 N132 N 0.65582 0.14140 0.80419
 C133 C 0.65393 0.12982 0.78939
 C134 C 0.63701 0.13393 0.78033
 C135 C 0.62927 0.14857 0.79074
 H136 H 0.66399 0.11897 0.78579
 H137 H 0.61612 0.15590 0.78818
 Cu138 Cu 0.67540 0.14261 0.82325
 Cu139 Cu 0.63856 0.17194 0.82425
 Cu140 Cu 0.67372 0.17370 0.85848
 N141 N 0.69473 0.14290 0.84258
 N142 N 0.69389 0.15486 0.85661
 C143 C 0.70849 0.15154 0.86836
 C144 C 0.71909 0.13677 0.86120
 C145 C 0.70988 0.13168 0.84485
 H146 H 0.71122 0.15932 0.88109
 H147 H 0.71370 0.12030 0.83556
 N148 N 0.65205 0.19139 0.85767
 N149 N 0.63860 0.19045 0.84483
 C150 C 0.62588 0.20417 0.84801
 C151 C 0.63154 0.21435 0.86353
 C152 C 0.64824 0.20587 0.86927
 H153 H 0.61356 0.20683 0.83941
 H154 H 0.65690 0.20988 0.88111
 H155 H 0.66706 0.17499 0.83030
 H156 H 0.65361 0.15791 0.84494
 N157 N 1.14253 0.65224 0.80485
 N158 N 1.15667 0.64024 0.80500
 C159 C 1.15487 0.62844 0.79038
 C160 C 1.13869 0.63325 0.78055
 C161 C 1.13118 0.64843 0.79017
 H162 H 1.16437 0.61694 0.78733
 H163 H 1.11850 0.65620 0.78668
 Cu164 Cu 1.17548 0.64086 0.82478
 Cu165 Cu 1.14007 0.67196 0.82368
 Cu166 Cu 1.17449 0.67349 0.85864
 N167 N 1.19409 0.64091 0.84475
 N168 N 1.19397 0.65392 0.85782
 C169 C 1.20823 0.65054 0.86994
 C170 C 1.21761 0.63441 0.86423
 C171 C 1.20823 0.62874 0.84819
 H172 H 1.21119 0.65885 0.88229
 H173 H 1.21152 0.61663 0.83966
 N174 N 1.15344 0.69179 0.85689
 N175 N 1.14017 0.69085 0.84386
 C176 C 1.12752 0.70470 0.84674
 C177 C 1.13303 0.71493 0.86227
 C178 C 1.14958 0.70638 0.86832
 H179 H 1.11528 0.70731 0.83803
 H180 H 1.15797 0.71030 0.88038
 H181 H 1.16852 0.67387 0.83029
 H182 H 1.15396 0.65803 0.84530
 N183 N 1.13852 0.15354 0.30759
 N184 N 1.15259 0.14146 0.30703
 C185 C 1.14959 0.12937 0.29278
 C186 C 1.13264 0.13412 0.28413
 C187 C 1.12611 0.14954 0.29392
 H188 H 1.15881 0.11779 0.28917
 H189 H 1.11332 0.15743 0.29120
 Cu190 Cu 1.17304 0.14269 0.32542
 Cu191 Cu 1.13701 0.17361 0.32582
 Cu192 Cu 1.17264 0.17631 0.35889
 N193 N 1.19228 0.14371 0.34504
 N194 N 1.19220 0.15710 0.35773
 C195 C 1.20694 0.15464 0.36941
 C196 C 1.21680 0.13878 0.36389
 C197 C 1.20705 0.13216 0.34838
 H198 H 1.20999 0.16350 0.38133
 H199 H 1.21053 0.11994 0.34008
 N200 N 1.15149 0.19435 0.35772
 N201 N 1.13777 0.19303 0.34526
 C202 C 1.12504 0.20673 0.34837
 C203 C 1.13100 0.21726 0.36350
 C204 C 1.14788 0.20906 0.36906
 H205 H 1.11239 0.20898 0.34014
 H206 H 1.15665 0.21324 0.38076
 H207 H 1.16590 0.17576 0.33080
 H208 H 1.15225 0.15985 0.34672
 N209 N 0.63868 1.34647 0.69143
 N210 N 0.65281 1.35838 0.69210
 C211 C 0.64981 1.37040 0.70646
 C212 C 0.63281 1.36578 0.71506
 C213 C 0.62622 1.35051 0.70512
 H214 H 0.65911 1.38180 0.71021
 H215 H 0.61341 1.34272 0.70782
 Cu216 Cu 0.67338 1.35706 0.67375
 Cu217 Cu 0.63733 1.32639 0.67316
 Cu218 Cu 0.67329 1.32343 0.64030
 N219 N 0.69279 1.35595 0.65421
 N220 N 0.69284 1.34256 0.64153
 C221 C 0.70763 1.34500 0.62987
 C222 C 0.71740 1.36084 0.63540
 C223 C 0.70753 1.36746 0.65091
 H224 H 0.71077 1.33614 0.61794
 H225 H 0.71089 1.37970 0.65920
 N226 N 0.65213 1.30549 0.64136
 N227 N 0.63826 1.30693 0.65371
 C228 C 0.62559 1.29327 0.65054
 C229 C 0.63172 1.28264 0.63548
 C230 C 0.64866 1.29075 0.63003
 H231 H 0.61286 1.29112 0.65868
 H232 H 0.65756 1.28649 0.61842
 H233 H 0.66624 1.32403 0.66835
 H234 H 0.65276 1.34002 0.65234
 N235 N 0.64348 0.84745 1.19395
 N236 N 0.65707 0.85992 1.19268
 C237 C 0.65528 0.87227 1.20689
 C238 C 0.63964 0.86734 1.21756
 C239 C 0.63251 0.85151 1.20889
 H240 H 0.66448 0.88412 1.20917
 H241 H 0.62037 0.84341 1.21324
 Cu242 Cu 0.67554 0.85895 1.17235
 Cu243 Cu 0.64104 0.82678 1.17630
 Cu244 Cu 0.67435 0.82404 1.14060
 N245 N 0.69433 0.85700 1.15238
 N246 N 0.69391 0.84316 1.14021
 C247 C 0.70846 0.84497 1.12814
 C248 C 0.71855 0.86086 1.13289
 C249 C 0.70915 0.86817 1.14835
 H250 H 0.71130 0.83557 1.11655
 H251 H 0.71294 0.88057 1.15618
 N252 N 0.65347 0.80601 1.14336
 N253 N 0.64094 0.80691 1.15710
 C254 C 0.62869 0.79260 1.15530
 C255 C 0.63365 0.78227 1.13960
 C256 C 0.64942 0.79120 1.13236
 H257 H 0.61683 0.79005 1.16455
 H258 H 0.65747 0.78707 1.12011
 H259 H 0.66941 0.82549 1.16922
 H260 H 0.65382 0.84002 1.15376
 N261 N 1.13950 1.34467 1.19102
 N262 N 1.15313 1.35713 1.19202
 C263 C 1.14948 1.36882 1.20649
 C264 C 1.13260 1.36344 1.21488
 C265 C 1.12674 1.34805 1.20464
 H266 H 1.15827 1.38055 1.21044
 H267 H 1.11422 1.33972 1.20710
 Cu268 Cu 1.17409 1.35719 1.17401
 Cu269 Cu 1.13931 1.32464 1.17256
 Cu270 Cu 1.17472 1.32504 1.13920
 N271 N 1.19281 1.35795 1.15371
 N272 N 1.19262 1.34549 1.14012
 C273 C 1.20632 1.34946 1.12766
 C274 C 1.21577 1.36527 1.13364
 C275 C 1.20689 1.37028 1.15033
 H276 H 1.20928 1.34134 1.11517
 H277 H 1.21016 1.38221 1.15909
 N278 N 1.15540 1.30542 1.14037
 N279 N 1.14155 1.30544 1.15281
 C280 C 1.13026 1.29062 1.14953
 C281 C 1.13746 1.28075 1.13435
 C282 C 1.15341 1.29055 1.12895
 H283 H 1.11782 1.28714 1.15766
 H284 H 1.16264 1.28729 1.11726
 H285 H 1.16807 1.32409 1.16764
 H286 H 1.15353 1.34017 1.15257
 N287 N 1.14164 0.84402 0.69340
 N288 N 1.15361 0.85799 0.69190
 C289 C 1.15077 0.86990 0.70637
 C290 C 1.13632 0.86285 0.71753
 C291 C 1.13091 0.84643 0.70881
 H292 H 1.15875 0.88258 0.70876
 H293 H 1.11971 0.83708 0.71315
 Cu294 Cu 1.17198 0.85898 0.67138
 Cu295 Cu 1.14020 0.82396 0.67511
 Cu296 Cu 1.17326 0.82393 0.63937
 N297 N 1.19144 0.85765 0.65191
 N298 N 1.19196 0.84382 0.63973
 C299 C 1.20694 0.84605 0.62829
 C300 C 1.21638 0.86219 0.63346
 C301 C 1.20610 0.86924 0.64851
 H302 H 1.21058 0.83670 0.61689
 H303 H 1.20925 0.88167 0.65658
 N304 N 1.15319 0.80498 0.64142
 N305 N 1.14082 0.80484 0.65531
 C306 C 1.12914 0.79015 0.65312
 C307 C 1.13432 0.78059 0.63701
 C308 C 1.14962 0.79042 0.62992
 H309 H 1.11747 0.78683 0.66237
 H310 H 1.15768 0.78707 0.61743
 H311 H 1.16863 0.82516 0.66799
 H312 H 1.15180 0.83852 0.65264
 N313 N 0.35857 0.65255 0.69337
 N314 N 0.34513 0.63991 0.69225
 C315 C 0.34747 0.62727 0.70617
 C316 C 0.36316 0.63232 0.71665
 C317 C 0.36982 0.64846 0.70808
 H318 H 0.33831 0.61541 0.70867
 H319 H 0.38211 0.65650 0.71208
 Cu320 Cu 0.32579 0.64147 0.67283
 Cu321 Cu 0.36075 0.67317 0.67549
 Cu322 Cu 0.32645 0.67615 0.64077
 N323 N 0.30689 0.64300 0.65300
 N324 N 0.30703 0.65682 0.64075
 C325 C 0.29245 0.65473 0.62879
 C326 C 0.28264 0.63867 0.63372
 C327 C 0.29225 0.63158 0.64916
 H328 H 0.28942 0.66404 0.61716
 H329 H 0.28872 0.61914 0.65709
 N330 N 0.34732 0.69430 0.64309
 N331 N 0.36053 0.69301 0.65613
 C332 C 0.37307 0.70699 0.65363
 C333 C 0.36746 0.71767 0.63833
 C334 C 0.35105 0.70920 0.63204
 H335 H 0.38534 0.70931 0.66235
 H336 H 0.34267 0.71336 0.62003
 H337 H 0.33228 0.67487 0.66917
 H338 H 0.34719 0.66000 0.65341
 N339 N 0.35687 0.15257 1.19235
 N340 N 0.34419 0.13928 1.19043
 C341 C 0.34667 0.12645 1.20412
 C342 C 0.36169 0.13199 1.21527
 C343 C 0.36779 0.14868 1.20736
 H344 H 0.33810 0.11405 1.20595
 H345 H 0.37954 0.15718 1.21194
 Cu346 Cu 0.32562 0.14000 1.17027
 Cu347 Cu 0.35876 0.17351 1.17486
 Cu348 Cu 0.32554 0.17562 1.13914
 N349 N 0.30654 0.14198 1.15067
 N350 N 0.30643 0.15605 1.13871
 C351 C 0.29166 0.15415 1.12696
 C352 C 0.28199 0.13796 1.13174
 C353 C 0.29187 0.13061 1.14686
 H354 H 0.28834 0.16373 1.11563
 H355 H 0.28846 0.11805 1.15468
 N356 N 0.34597 0.19413 1.14191
 N357 N 0.35840 0.19353 1.15573
 C358 C 0.37041 0.20804 1.15385
 C359 C 0.36539 0.21821 1.13803
 C360 C 0.34983 0.20896 1.13081
 H361 H 0.38222 0.21079 1.16307
 H362 H 0.34184 0.21284 1.11845
 H363 H 0.33041 0.17376 1.16775
 H364 H 0.34667 0.16017 1.15210
 N365 N 0.85839 0.65182 1.19240
 N366 N 0.84526 0.63891 1.19093
 C367 C 0.84752 0.62629 1.20485
 C368 C 0.86287 0.63159 1.21566
 C369 C 0.86939 0.64790 1.20733
 H370 H 0.83854 0.61425 1.20711
 H371 H 0.88142 0.65617 1.21163
 Cu372 Cu 0.82635 0.63990 1.17113
 Cu373 Cu 0.86048 0.67250 1.17465
 Cu374 Cu 0.82610 0.67563 1.14008
 N375 N 0.80696 0.64217 1.15188
 N376 N 0.80671 0.65631 1.14002
 C377 C 0.79181 0.65446 1.12840
 C378 C 0.78224 0.63821 1.13317
 C379 C 0.79227 0.63080 1.14816
 H380 H 0.78844 0.66402 1.11708
 H381 H 0.78901 0.61815 1.15589
 N382 N 0.84696 0.69375 1.14242
 N383 N 0.86020 0.69239 1.15541
 C384 C 0.87281 0.70629 1.15289
 C385 C 0.86722 0.71698 1.13760
 C386 C 0.85074 0.70862 1.13135
 H387 H 0.88514 0.70851 1.16155
 H388 H 0.84239 0.71279 1.11933
 H389 H 0.83189 0.67354 1.16848
 H390 H 0.84721 0.65959 1.15222
 N391 N 0.85721 0.15362 0.69341
 N392 N 0.84333 0.14142 0.69274
 C393 C 0.84530 0.12914 0.70703
 C394 C 0.86133 0.13384 0.71714
 C395 C 0.86852 0.14947 0.70805
 H396 H 0.83595 0.11748 0.70972
 H397 H 0.88094 0.15737 0.71192
 Cu398 Cu 0.82423 0.14260 0.67306
 Cu399 Cu 0.85955 0.17405 0.67536
 Cu400 Cu 0.82611 0.17617 0.63982
 N401 N 0.80590 0.14366 0.65267
 N402 N 0.80658 0.15698 0.63989
 C403 C 0.79224 0.15468 0.62769
 C404 C 0.78205 0.13899 0.63300
 C405 C 0.79117 0.13233 0.64891
 H406 H 0.78959 0.16363 0.61569
 H407 H 0.78720 0.12029 0.65726
 N408 N 0.84695 0.19432 0.64211
 N409 N 0.85953 0.19366 0.65579
 C410 C 0.87168 0.20802 0.65369
 C411 C 0.86660 0.21817 0.63786
 C412 C 0.85086 0.20904 0.63088
 H413 H 0.88353 0.21078 0.66286
 H414 H 0.84272 0.21300 0.61864
 H415 H 0.83122 0.17578 0.66843
 H416 H 0.84633 0.16021 0.65354
 N417 N 1.34897 0.35872 0.69428
 N418 N 1.36284 0.34652 0.69268
 C419 C 1.37559 0.34961 0.70636
 C420 C 1.36938 0.36454 0.71718
 C421 C 1.35238 0.36994 0.70909
 H422 H 1.38834 0.34147 0.70845
 H423 H 1.34330 0.38137 0.71346
 Cu424 Cu 1.36258 0.32767 0.67300
 Cu425 Cu 1.32784 0.35943 0.67666
 Cu426 Cu 1.32750 0.32565 0.64139
 N427 N 1.36232 0.30857 0.65356
 N428 N 1.34832 0.30749 0.64149
 C429 C 1.35131 0.29272 0.63006
 C430 C 1.36826 0.28410 0.63512
 C431 C 1.37477 0.29468 0.65014
 H432 H 1.34190 0.28878 0.61879
 H433 H 1.38744 0.29231 0.65828
 N434 N 1.30781 0.34531 0.64380
 N435 N 1.30781 0.35788 0.65743
 C436 C 1.29276 0.36930 0.65527
 C437 C 1.28283 0.36381 0.63948
 C438 C 1.29281 0.34856 0.63254
 H439 H 1.28952 0.38111 0.66423
 H440 H 1.28937 0.34042 0.62021
 H441 H 1.32842 0.33126 0.66980
 H442 H 1.34183 0.34741 0.65407
 N443 N 1.34672 0.86077 1.19189
 N444 N 1.35957 0.84743 1.19216
 C445 C 1.37154 0.85063 1.20658
 C446 C 1.36596 0.86707 1.21565
 C447 C 1.35013 0.87298 1.20579
 H448 H 1.38355 0.84185 1.20997
 H449 H 1.34133 0.88505 1.20866
 Cu450 Cu 1.35932 0.82773 1.17300
 Cu451 Cu 1.32598 0.86144 1.17413
 Cu452 Cu 1.32404 0.82601 1.14115
 N453 N 1.35794 0.80769 1.15428
 N454 N 1.34383 0.80704 1.14229
 C455 C 1.34596 0.79205 1.13107
 C456 C 1.36247 0.78269 1.13601
 C457 C 1.36972 0.79314 1.15087
 H458 H 1.33635 0.78864 1.11980
 H459 H 1.38251 0.79037 1.15871
 N460 N 1.30534 0.84651 1.14229
 N461 N 1.30601 0.85985 1.15509
 C462 C 1.29134 0.87163 1.15250
 C463 C 1.28099 0.86553 1.13727
 C464 C 1.29029 0.84958 1.13107
 H465 H 1.28856 0.88397 1.16087
 H466 H 1.28626 0.84080 1.11938
 H467 H 1.32542 0.83283 1.16924
 H468 H 1.33976 0.84736 1.15263
 N469 N 0.84731 0.35765 1.19551
 N470 N 0.85983 0.34403 1.19543
 C471 C 0.87165 0.34622 1.21006
 C472 C 0.86645 0.36228 1.21982
 C473 C 0.85088 0.36916 1.21006
 H474 H 0.88345 0.33703 1.21302
 H475 H 0.84256 0.38148 1.21330
 Cu476 Cu 0.86001 0.32530 1.17567
 Cu477 Cu 0.82723 0.35924 1.17685
 Cu478 Cu 0.82701 0.32536 1.14170
 N479 N 0.86013 0.30661 1.15588
 N480 N 0.84709 0.30644 1.14271
 C481 C 0.85066 0.29212 1.13086
 C482 C 0.86690 0.28296 1.13688
 C483 C 0.87246 0.29256 1.15279
 H484 H 0.84234 0.28888 1.11854
 H485 H 0.88456 0.28944 1.16154
 N486 N 0.80801 0.34576 1.14329
 N487 N 0.80808 0.35846 1.15678
 C488 C 0.79333 0.37017 1.15431
 C489 C 0.78350 0.36472 1.13846
 C490 C 0.79325 0.34922 1.13177
 H491 H 0.79008 0.38198 1.16326
 H492 H 0.78967 0.34093 1.11959
 H493 H 0.82644 0.33098 1.17016
 H494 H 0.84185 0.34614 1.15527
 N495 N 0.84761 0.85696 0.69362
 N496 N 0.85992 0.84313 0.69286
 C497 C 0.87244 0.84509 0.70699
 C498 C 0.86777 0.86108 0.71704
 C499 C 0.85192 0.86823 0.70812
 H500 H 0.88423 0.83577 0.70962
 H501 H 0.84396 0.88060 0.71202
 Cu502 Cu 0.85844 0.82412 0.67328
 Cu503 Cu 0.82682 0.85935 0.67593
 Cu504 Cu 0.82414 0.82618 0.64051
 N505 N 0.85708 0.80593 0.65294
 N506 N 0.84347 0.80665 0.64038
 C507 C 0.84561 0.79237 0.62821
 C508 C 0.86150 0.78218 0.63331
 C509 C 0.86845 0.79123 0.64906
 H510 H 0.83642 0.78976 0.61637
 H511 H 0.88071 0.78723 0.65722
 N512 N 0.80593 0.84703 0.64305
 N513 N 0.80682 0.85946 0.65674
 C514 C 0.79239 0.87168 0.65490
 C515 C 0.78196 0.86682 0.63924
 C516 C 0.79098 0.85114 0.63204
 H517 H 0.78981 0.88347 0.66409
 H518 H 0.78681 0.84320 0.61980
 H519 H 0.82491 0.83123 0.66905
 H520 H 0.84047 0.84604 0.65388
 N521 N 0.65280 0.64328 0.69321
 N522 N 0.63946 0.65613 0.69216
 C523 C 0.62696 0.65338 0.70622
 C524 C 0.63282 0.63804 0.71671
 C525 C 0.64931 0.63202 0.70802
 H526 H 0.61460 0.66198 0.70874
 H527 H 0.65798 0.62014 0.71197
 Cu528 Cu 0.63968 0.67508 0.67241
 Cu529 Cu 0.67357 0.64185 0.67512
 Cu530 Cu 0.67432 0.67586 0.64023
 N531 N 0.64038 0.69421 0.65281
 N532 N 0.65391 0.69411 0.64012
 C533 C 0.65098 0.70813 0.62781
 C534 C 0.63476 0.71766 0.63304
 C535 C 0.62841 0.70849 0.64905
 H536 H 0.66008 0.71124 0.61599
 H537 H 0.61582 0.71176 0.65707
 N538 N 0.69374 0.65627 0.64252
 N539 N 0.69336 0.64299 0.65546
 C540 C 0.70827 0.63143 0.65274
 C541 C 0.71855 0.63793 0.63747
 C542 C 0.70890 0.65366 0.63139
 H543 H 0.71153 0.61931 0.66130
 H544 H 0.71248 0.66233 0.61944
 H545 H 0.67361 0.67000 0.66880
 H546 H 0.65936 0.65446 0.65322
 N547 N 0.65772 1.14027 1.19351
 N548 N 0.64327 1.15189 1.19290
 C549 C 0.63163 1.14813 1.20747
 C550 C 0.63932 1.13342 1.21790
 C551 C 0.65594 1.12893 1.20850
 H552 H 0.61865 1.15567 1.21031
 H553 H 0.66588 1.11792 1.21190
 Cu554 Cu 0.64134 1.17078 1.17301
 Cu555 Cu 0.67756 1.13987 1.17457
 Cu556 Cu 0.67514 1.17357 1.13975
 N557 N 0.64076 1.19024 1.15359
 N558 N 0.65396 1.19083 1.14056
 C559 C 0.65018 1.20483 1.12850
 C560 C 0.63375 1.21367 1.13418
 C561 C 0.62815 1.20414 1.15028
 H562 H 0.65886 1.20843 1.11651
 H563 H 0.61568 1.20689 1.15866
 N564 N 0.69553 1.15493 1.14114
 N565 N 0.69629 1.14176 1.15416
 C566 C 0.71138 1.13067 1.15076
 C567 C 0.72059 1.13733 1.13493
 C568 C 0.71017 1.15272 1.12925
 H569 H 0.71542 1.11867 1.15917
 H570 H 0.71280 1.16134 1.11702
 H571 H 0.67539 1.16800 1.16835
 H572 H 0.66175 1.15149 1.15316
 N573 N 0.15333 0.64199 1.19383
 N574 N 0.13995 0.65480 1.19323
 C575 C 0.12751 0.65171 1.20719
 C576 C 0.13336 0.63615 1.21737
 C577 C 0.14997 0.63043 1.20848
 H578 H 0.11529 0.66041 1.20987
 H579 H 0.15875 0.61850 1.21202
 Cu580 Cu 0.14000 0.67446 1.17447
 Cu581 Cu 0.17332 0.64085 1.17468
 Cu582 Cu 0.17169 0.67510 1.13968
 N583 N 0.13957 0.69398 1.15554
 N584 N 0.15171 0.69388 1.14156
 C585 C 0.14803 0.70850 1.13014
 C586 C 0.13277 0.71846 1.13742
 C587 C 0.12784 0.70876 1.15363
 H588 H 0.15616 0.71173 1.11768
 H589 H 0.11640 0.71193 1.16318
 N590 N 0.19084 0.65500 1.14032
 N591 N 0.19188 0.64226 1.15378
 C592 C 0.20668 0.63081 1.15017
 C593 C 0.21521 0.63657 1.13357
 C594 C 0.20478 0.65194 1.12780
 H595 H 0.21073 0.61894 1.15875
 H596 H 0.20733 0.66043 1.11546
 H597 H 0.17348 0.66903 1.16819
 H598 H 0.15784 0.65369 1.15386
 N599 N 0.15214 1.14084 0.69237
 N600 N 0.13808 1.15284 0.69109
 C601 C 0.12542 1.14932 0.70473
 C602 C 0.13183 1.13434 0.71541
 C603 C 0.14898 1.12934 0.70710
 H604 H 0.11271 1.15746 0.70694
 H605 H 0.15838 1.11810 0.71124
 Cu606 Cu 0.13781 1.17255 0.67237
 Cu607 Cu 0.17319 1.14107 0.67447
 Cu608 Cu 0.17294 1.17693 0.64114
 N609 N 0.13758 1.19227 0.65362
 N610 N 0.15166 1.19433 0.64177
 C611 C 0.14818 1.20926 0.63069
 C612 C 0.13081 1.21696 0.63580
 C613 C 0.12458 1.20569 0.65045
 H614 H 0.15750 1.21385 0.61956
 H615 H 0.11166 1.20721 0.65843
 N616 N 0.19309 1.15786 0.64272
 N617 N 0.19304 1.14396 0.65502
 C618 C 0.20804 1.13274 0.65157
 C619 C 0.21804 1.14002 0.63648
 C620 C 0.20814 1.15594 0.63129
 H621 H 0.21140 1.12015 0.65938
 H622 H 0.21133 1.16507 0.61958
 H623 H 0.17206 1.16941 0.66928
 H624 H 0.15899 1.15401 0.65265
 N625 N 1.34917 0.64455 0.30731
 N626 N 1.36141 0.65834 0.30825
 C627 C 1.37404 0.65646 0.29413
 C628 C 1.36931 0.64073 0.28375
 C629 C 1.35344 0.63357 0.29255
 H630 H 1.38574 0.66585 0.29153
 H631 H 1.34579 0.62103 0.28877
 Cu632 Cu 1.35961 0.67731 0.32790
 Cu633 Cu 1.32899 0.64130 0.32554
 Cu634 Cu 1.32634 0.67354 0.36174
 N635 N 1.35810 0.69501 0.34872
 N636 N 1.34534 0.69322 0.36205
 C637 C 1.34777 0.70685 0.37486
 C638 C 1.36286 0.71802 0.36930
 C639 C 1.36900 0.70999 0.35254
 H640 H 1.33897 0.70854 0.38718
 H641 H 1.38072 0.71444 0.34387
 N642 N 1.30837 0.65264 0.35900
 N643 N 1.30955 0.64026 0.34529
 C644 C 1.29565 0.62755 0.34737
 C645 C 1.28513 0.63219 0.36310
 C646 C 1.29357 0.64821 0.37010
 H647 H 1.29323 0.61588 0.33803
 H648 H 1.28940 0.65590 0.38253
 H649 H 1.32647 0.66920 0.33305
 H650 H 1.34300 0.65448 0.34736
 N651 N 1.34461 1.14129 0.80906
 N652 N 1.35725 1.15474 0.80800
 C653 C 1.36900 1.15110 0.79346
 C654 C 1.36344 1.13443 0.78510
 C655 C 1.34791 1.12868 0.79542
 H656 H 1.38087 1.15975 0.78943
 H657 H 1.33942 1.11634 0.79301
 Cu658 Cu 1.35741 1.17543 0.82605
 Cu659 Cu 1.32449 1.14104 0.82765
 Cu660 Cu 1.32503 1.17601 0.86100
 N661 N 1.35818 1.19403 0.84626
 N662 N 1.34563 1.19380 0.85991
 C663 C 1.34958 1.20742 0.87228
 C664 C 1.36545 1.21689 0.86617
 C665 C 1.37053 1.20808 0.84949
 H666 H 1.34137 1.21035 0.88478
 H667 H 1.38251 1.21141 0.84064
 N668 N 1.30526 1.15684 0.86000
 N669 N 1.30523 1.14318 0.84753
 C670 C 1.29035 1.13191 0.85097
 C671 C 1.28050 1.13892 0.86626
 C672 C 1.29035 1.15474 0.87159
 H673 H 1.28686 1.11958 0.84288
 H674 H 1.28714 1.16379 0.88334
 H675 H 1.32401 1.16950 0.83255
 H676 H 1.34021 1.15500 0.84754
 N677 N 0.84728 0.63980 0.80847
 N678 N 0.85919 0.65388 0.80764
 C679 C 0.87140 0.65085 0.79333
 C680 C 0.86689 0.63386 0.78499
 C681 C 0.85150 0.62735 0.79497
 H682 H 0.88292 0.66005 0.78953
 H683 H 0.84379 0.61453 0.79249
 Cu684 Cu 0.85788 0.67434 0.82588
 Cu685 Cu 0.82719 0.63822 0.82683
 Cu686 Cu 0.82520 0.67257 0.86079
 N687 N 0.85731 0.69264 0.84630
 N688 N 0.84470 0.69166 0.85988
 C689 C 0.84788 0.70544 0.87234
 C690 C 0.86331 0.71573 0.86632
 C691 C 0.86891 0.70723 0.84968
 H692 H 0.83951 0.70783 0.88484
 H693 H 0.88079 0.71112 0.84093
 N694 N 0.80674 0.65204 0.85931
 N695 N 0.80775 0.63881 0.84643
 C696 C 0.79383 0.62634 0.84939
 C697 C 0.78350 0.63197 0.86488
 C698 C 0.79201 0.64838 0.87079
 H699 H 0.79135 0.61407 0.84087
 H700 H 0.78806 0.65675 0.88284
 H701 H 0.82485 0.66674 0.83245
 H702 H 0.84181 0.65299 0.84732
 N703 N 0.84852 1.14251 0.30594
 N704 N 0.86090 1.15619 0.30594
 C705 C 0.87274 1.15397 0.29124
 C706 C 0.86753 1.13796 0.28159
 C707 C 0.85209 1.13105 0.29134
 H708 H 0.88449 1.16308 0.28801
 H709 H 0.84397 1.11867 0.28802
 Cu710 Cu 0.86057 1.17505 0.32562
 Cu711 Cu 0.82871 1.14053 0.32488
 Cu712 Cu 0.82729 1.17488 0.35943
 N713 N 0.86030 1.19388 0.34530
 N714 N 0.84706 1.19408 0.35830
 C715 C 0.85032 1.20844 0.37016
 C716 C 0.86662 1.21758 0.36436
 C717 C 0.87249 1.20796 0.34852
 H718 H 0.84179 1.21168 0.38238
 H719 H 0.88473 1.21105 0.33994
 N720 N 0.80879 1.15412 0.35804
 N721 N 0.80972 1.14091 0.34508
 C722 C 0.79582 1.12843 0.34810
 C723 C 0.78553 1.13396 0.36368
 C724 C 0.79411 1.15039 0.36959
 H725 H 0.79323 1.11626 0.33946
 H726 H 0.79018 1.15876 0.38165
 H727 H 0.82721 1.16892 0.33111
 H728 H 0.84296 1.15432 0.34634
 N729 N 0.65160 0.35714 0.30915
 N730 N 0.63788 0.34494 0.31129
 C731 C 0.62501 0.34751 0.29758
 C732 C 0.63093 0.36212 0.28604
 C733 C 0.64797 0.36782 0.29393
 H734 H 0.61247 0.33905 0.29599
 H735 H 0.65706 0.37902 0.28915
 Cu736 Cu 0.63796 0.32634 0.33138
 Cu737 Cu 0.67298 0.35836 0.32644
 Cu738 Cu 0.67596 0.32310 0.35970
 N739 N 0.64090 0.30594 0.34945
 N740 N 0.65605 0.30450 0.36000
 C741 C 0.65460 0.28924 0.37100
 C742 C 0.63747 0.28051 0.36734
 C743 C 0.62917 0.29162 0.35348
 H744 H 0.66511 0.28518 0.38124
 H745 H 0.61569 0.28945 0.34671
 N746 N 0.69478 0.34314 0.35753
 N747 N 0.69351 0.35698 0.34527
 C748 C 0.70804 0.36889 0.34810
 C749 C 0.71901 0.36205 0.36276
 C750 C 0.71013 0.34574 0.36834
 H751 H 0.71052 0.38153 0.34008
 H752 H 0.71427 0.33671 0.37985
 H753 H 0.67222 0.32995 0.33147
 H754 H 0.66028 0.34548 0.34910
 N755 N 0.65542 0.86008 0.80714
 N756 N 0.64146 0.84796 0.80714
 C757 C 0.63000 0.85166 0.79244
 C758 C 0.63722 0.86689 0.78268
 C759 C 0.65338 0.87183 0.79246
 H760 H 0.61751 0.84370 0.78894
 H761 H 0.66281 0.88330 0.78929
 Cu762 Cu 0.63982 0.82835 0.82620
 Cu763 Cu 0.67513 0.85990 0.82624
 Cu764 Cu 0.67347 0.82437 0.85946
 N765 N 0.63927 0.80832 0.84486
 N766 N 0.65263 0.80669 0.85760
 C767 C 0.64895 0.79176 0.86858
 C768 C 0.63235 0.78351 0.86245
 C769 C 0.62661 0.79443 0.84734
 H770 H 0.65752 0.78746 0.88041
 H771 H 0.61424 0.79232 0.83870
 N772 N 0.69337 0.84366 0.85908
 N773 N 0.69380 0.85740 0.84664
 C774 C 0.70856 0.86865 0.85049
 C775 C 0.71795 0.86161 0.86605
 C776 C 0.70793 0.84574 0.87109
 H777 H 0.71229 0.88100 0.84250
 H778 H 0.71080 0.83663 0.88291
 H779 H 0.67383 0.83132 0.83124
 H780 H 0.65973 0.84678 0.84718
 N781 N 0.15651 0.36016 0.80793
 N782 N 0.14222 0.34844 0.80825
 C783 C 0.13076 0.35219 0.79358
 C784 C 0.13832 0.36702 0.78348
 C785 C 0.15470 0.37168 0.79304
 H786 H 0.11802 0.34451 0.79032
 H787 H 0.16449 0.38277 0.78956
 Cu788 Cu 0.14005 0.32910 0.82751
 Cu789 Cu 0.17625 0.35977 0.82692
 Cu790 Cu 0.17456 0.32408 0.85992
 N791 N 0.13988 0.30873 0.84579
 N792 N 0.15359 0.30652 0.85804
 C793 C 0.15003 0.29127 0.86863
 C794 C 0.13301 0.28343 0.86284
 C795 C 0.12705 0.29501 0.84824
 H796 H 0.15907 0.28654 0.87992
 H797 H 0.11443 0.29356 0.83985
 N798 N 0.19457 0.34331 0.85960
 N799 N 0.19498 0.35711 0.84722
 C800 C 0.20972 0.36837 0.85110
 C801 C 0.21914 0.36132 0.86664
 C802 C 0.20915 0.34538 0.87161
 H803 H 0.21340 0.38077 0.84316
 H804 H 0.21203 0.33625 0.88341
 H805 H 0.17424 0.33125 0.83180
 H806 H 0.16093 0.34693 0.84820
 N807 N 0.15239 0.85595 0.30758
 N808 N 0.13983 0.84241 0.30835
 C809 C 0.12718 0.84485 0.29440
 C810 C 0.13212 0.86067 0.28423
 C811 C 0.14825 0.86733 0.29300
 H812 H 0.11533 0.83569 0.29173
 H813 H 0.15621 0.87971 0.28927
 Cu814 Cu 0.14092 0.82278 0.32743
 Cu815 Cu 0.17296 0.85804 0.32571
 Cu816 Cu 0.17398 0.82498 0.36129
 N817 N 0.14150 0.80496 0.34828
 N818 N 0.15414 0.80637 0.36169
 C819 C 0.15118 0.79289 0.37456
 C820 C 0.13588 0.78215 0.36895
 C821 C 0.13012 0.79029 0.35208
 H822 H 0.15990 0.79090 0.38686
 H823 H 0.11839 0.78611 0.34334
 N824 N 0.19300 0.84473 0.35877
 N825 N 0.19261 0.85763 0.34546
 C826 C 0.20747 0.86923 0.34787
 C827 C 0.21774 0.86311 0.36331
 C828 C 0.20811 0.84760 0.36982
 H829 H 0.21076 0.88105 0.33892
 H830 H 0.21175 0.83917 0.38193
 H831 H 0.17428 0.83004 0.33243
 H832 H 0.15811 0.84505 0.34689
 O833 O 0.98216 0.93220 0.90432
 O834 O 0.98227 0.91089 0.88189
 C835 C 0.97575 0.92598 0.88887
 C836 C 0.96015 0.93609 0.87928
 C837 C 0.95288 0.92940 0.86220
 H838 H 0.95945 0.91739 0.85552
 O839 O 1.01936 1.06939 0.90608
 O840 O 1.01975 1.09118 0.88405
 C841 C 1.02615 1.07595 0.89089
 C842 C 1.04202 1.06600 0.88154
 C843 C 1.05035 1.07328 0.86511
 H844 H 1.04488 1.08610 0.85899
 O845 O 0.90727 0.98235 0.93054
 O846 O 0.88512 0.98277 0.90874
 C847 C 0.89189 0.97604 0.92388
 C848 C 0.88210 0.96037 0.93352
 C849 C 0.86491 0.95343 0.92651
 H850 H 0.85864 0.95985 0.91419
 O851 O 1.09337 1.01806 0.93291
 O852 O 1.11592 1.01819 0.91144
 C853 C 1.10888 1.02450 0.92662
 C854 C 1.11859 1.03985 0.93671
 C855 C 1.13594 1.04671 0.93004
 H856 H 1.14238 1.04044 0.91772
 O857 O 0.93245 0.90533 0.97915
 O858 O 0.91011 0.88383 0.97888
 C859 C 0.92551 0.89035 0.97242
 C860 C 0.93514 0.88090 0.95645
 C861 C 0.92751 0.86462 0.94832
 H862 H 0.91473 0.85857 0.95412
 O863 O 1.06759 1.09431 0.98211
 O864 O 1.09003 1.11570 0.98249
 C865 C 1.07469 1.10940 0.97575
 C866 C 1.06543 1.11928 0.95986
 C867 C 1.07329 1.13578 0.95246
 H868 H 1.08541 1.14198 0.95932
 O869 O 0.93321 1.01926 0.90513
 O870 O 0.91114 1.01965 0.88326
 C871 C 0.92651 1.02596 0.88997
 C872 C 0.93636 1.04165 0.88039
 C873 C 0.92957 1.04871 0.86321
 H874 H 0.91768 1.04198 0.85645
 O875 O 1.06813 0.98185 0.90608
 O876 O 1.09066 0.98213 0.88459
 C877 C 1.07516 0.97566 0.89084
 C878 C 1.06551 0.96039 0.88058
 C879 C 1.07275 0.95383 0.86340
 H880 H 1.08524 0.96030 0.85744
 O881 O 1.01893 0.90565 0.92943
 O882 O 1.01920 0.88426 0.90708
 C883 C 1.02556 0.89058 0.92251
 C884 C 1.04122 0.88075 0.93230
 C885 C 1.04944 0.86443 0.92472
 H886 H 1.04397 0.85865 0.91175
 O887 O 0.98231 1.09527 0.93139
 O888 O 0.98233 1.11715 0.90945
 C889 C 0.97575 1.11047 0.92469
 C890 C 0.95986 1.11998 0.93449
 C891 C 0.95164 1.13639 0.92709
 H892 H 0.95729 1.14248 0.91431
 O893 O 0.90787 1.06836 0.98058
 O894 O 0.88542 1.08990 0.98103
 C895 C 0.89235 1.07488 0.97432
 C896 C 0.88245 1.06519 0.95880
 C897 C 0.86510 1.07210 0.95209
 H898 H 0.85886 1.08442 0.95852
 O899 O 1.09245 0.93078 0.98066
 O900 O 1.11480 0.90912 0.98081
 C901 C 1.10803 0.92437 0.97443
 C902 C 1.11812 0.93452 0.95930
 C903 C 1.13552 0.92782 0.95247
 H904 H 1.14171 0.91529 0.95854
 O905 O 0.98243 1.06945 0.90589
 O906 O 0.98264 1.09119 0.88380
 C907 C 0.97606 1.07601 0.89053
 C908 C 0.96051 1.06615 0.88070
 C909 C 0.95340 1.07307 0.86359
 H910 H 0.95957 1.08554 0.85744
 O911 O 1.01905 0.93211 0.90448
 O912 O 1.01926 0.91083 0.88202
 C913 C 1.02565 0.92589 0.88908
 C914 C 1.04132 0.93601 0.87968
 C915 C 1.04873 0.92967 0.86246
 H916 H 1.04230 0.91780 0.85549
 O917 O 1.09351 0.98141 0.93234
 O918 O 1.11605 0.98166 0.91085
 C919 C 1.10903 0.97504 0.92590
 C920 C 1.11867 0.95936 0.93565
 C921 C 1.13614 0.95255 0.92908
 H922 H 1.14309 0.95949 0.91742
 O923 O 0.90714 1.01901 0.93080
 O924 O 0.88499 1.01945 0.90900
 C925 C 0.89177 1.02564 0.92431
 C926 C 0.88205 1.04111 0.93439
 C927 C 0.86464 1.04821 0.92791
 H928 H 0.85778 1.04170 0.91599
 O929 O 0.93339 1.09440 0.98122
 O930 O 0.91091 1.11591 0.98154
 C931 C 0.92638 1.10959 0.97495
 C932 C 0.93585 1.11955 0.95926
 C933 C 0.92797 1.13605 0.95182
 H934 H 0.91566 1.14221 0.95849
 O935 O 1.06688 0.90491 0.98005
 O936 O 1.08922 0.88325 0.98019
 C937 C 1.07393 0.88986 0.97351
 C938 C 1.06474 0.88039 0.95745
 C939 C 1.07262 0.86401 0.94981
 H940 H 1.08474 0.85758 0.95658
 O941 O 1.06796 1.01849 0.90672
 O942 O 1.09054 1.01865 0.88527
 C943 C 1.07505 1.02510 0.89169
 C944 C 1.06569 1.04094 0.88194
 C945 C 1.07355 1.04820 0.86537
 H946 H 1.08563 1.04124 0.85906
 O947 O 0.93297 0.98254 0.90461
 O948 O 0.91088 0.98293 0.88274
 C949 C 0.92620 0.97626 0.88933
 C950 C 0.93591 0.96063 0.87949
 C951 C 0.92873 0.95360 0.86250
 H952 H 0.91623 0.95993 0.85636
 O953 O 1.01924 1.09509 0.93162
 O954 O 1.01950 1.11701 0.90972
 C955 C 1.02591 1.11025 0.92499
 C956 C 1.04171 1.11968 0.93488
 C957 C 1.04999 1.13602 0.92748
 H958 H 1.04447 1.14201 0.91460
 O959 O 0.98202 0.90609 0.92963
 O960 O 0.98214 0.88468 0.90730
 C961 C 0.97554 0.89105 0.92267
 C962 C 0.95968 0.88130 0.93217
 C963 C 0.95199 0.86494 0.92440
 H964 H 0.95852 0.85880 0.91206
 O965 O 1.09288 1.06792 0.98244
 O966 O 1.11537 1.08927 0.98280
 C967 C 1.10849 1.07419 0.97625
 C968 C 1.11843 1.06414 0.96090
 C969 C 1.13586 1.07072 0.95408
 H970 H 1.14252 1.08264 0.96073
 O971 O 0.90725 0.93183 0.97941
 O972 O 0.88486 0.91037 0.97921
 C973 C 0.89177 0.92558 0.97292
 C974 C 0.88204 0.93576 0.95751
 C975 C 0.86477 0.92916 0.95039
 H976 H 0.85806 0.91716 0.95692
 Cu977 Cu 1.00055 0.92113 0.91921
 Cu978 Cu 1.00071 0.89551 0.89233
 Cu979 Cu 1.00081 1.08014 0.92094
 Cu980 Cu 1.00105 1.10633 0.89454
 Cu981 Cu 0.92236 1.00077 0.91995
 Cu982 Cu 0.89583 1.00125 0.89374
 Cu983 Cu 1.07848 0.99990 0.92168
 Cu984 Cu 1.10555 1.00019 0.89588
 C985 C 0.95171 0.95185 0.88770
 H986 H 0.95709 0.95695 0.90098
 C987 C 0.93711 0.93797 0.85374
 C988 C 1.04978 1.04978 0.88981
 H989 H 1.04380 1.04436 0.90274
 C990 C 1.06625 1.06451 0.85700
 C991 C 0.89048 0.95150 0.94911
 H992 H 0.90391 0.95654 0.95437
 C993 C 0.85612 0.93782 0.93483
 C994 C 1.11001 1.04855 0.95226
 H995 H 1.09645 1.04354 0.95726
 C996 C 1.14468 1.06214 0.93860
 C997 C 0.95130 0.88903 0.94831
 H998 H 0.95702 0.90180 0.95422
 C999 C 0.93579 0.85658 0.93220
 C1000 C 1.04950 1.11150 0.95113
 H1001 H 1.04351 1.09866 0.95665
 C1002 C 1.06589 1.14416 0.93610
 C1003 C 0.95197 1.05034 0.88891
 H1004 H 0.95713 1.04512 0.90226
 C1005 C 0.93794 1.06446 0.85471
 C1006 C 1.04969 0.95150 0.88850
 H1007 H 1.04426 0.95630 0.90192
 C1008 C 1.06448 0.93848 0.85422
 C1009 C 1.04891 0.88851 0.94874
 H1010 H 1.04294 0.90130 0.95444
 C1011 C 1.06527 0.85602 0.93333
 C1012 C 0.95193 1.11178 0.95065
 H1013 H 0.95790 1.09890 0.95619
 C1014 C 0.93559 1.14447 0.93562
 C1015 C 0.89073 1.04960 0.94996
 H1016 H 0.90426 1.04440 0.95489
 C1017 C 0.85605 1.06374 0.93667
 C1018 C 1.10989 0.95039 0.95091
 H1019 H 1.09631 0.95543 0.95589
 C1020 C 1.14466 0.93674 0.93736
 O1021 O 1.01838 0.92971 1.09346
 O1022 O 1.01832 0.90757 1.11513
 C1023 C 1.02500 0.92275 1.10854
 C1024 C 1.04097 0.93222 1.11814
 C1025 C 1.04913 0.92452 1.13447
 H1026 H 1.04347 0.91169 1.14034
 O1027 O 0.98169 1.06644 1.09428
 O1028 O 0.98143 1.08782 1.11665
 C1029 C 0.97513 1.07268 1.10968
 C1030 C 0.95952 1.06257 1.11914
 C1031 C 0.95224 1.06904 1.13633
 H1032 H 0.95889 1.08080 1.14326
 O1033 O 0.90737 1.01683 1.06643
 O1034 O 0.88476 1.01679 1.08784
 C1035 C 0.89182 1.02324 1.07273
 C1036 C 0.88210 1.03870 1.06272
 C1037 C 0.86464 1.04543 1.06933
 H1038 H 0.85816 1.03897 1.08153
 O1039 O 1.09233 0.98026 1.06717
 O1040 O 1.11481 0.97988 1.08864
 C1041 C 1.10783 0.97372 1.07341
 C1042 C 1.11752 0.95834 1.06324
 C1043 C 1.13503 0.95148 1.06961
 H1044 H 1.14195 0.95817 1.08139
 O1045 O 1.06631 0.90465 1.01683
 O1046 O 1.08859 0.88294 1.01692
 C1047 C 1.07310 0.88944 1.02326
 C1048 C 1.06321 0.87953 1.03867
 C1049 C 1.07020 0.86239 1.04551
 H1050 H 1.08269 0.85625 1.03914
 O1051 O 0.93311 1.09352 1.01812
 O1052 O 0.91065 1.11505 1.01835
 C1053 C 0.92599 1.10843 1.02491
 C1054 C 0.93514 1.11777 1.04111
 C1055 C 0.92717 1.13411 1.04877
 H1056 H 0.91508 1.14054 1.04197
 O1057 O 0.93248 0.98019 1.09299
 O1058 O 0.90991 0.98026 1.11444
 C1059 C 0.92546 0.97383 1.10815
 C1060 C 0.93521 0.95848 1.11828
 C1061 C 0.92813 0.95177 1.13545
 H1062 H 0.91559 0.95816 1.14146
 O1063 O 1.06681 1.01647 1.09397
 O1064 O 1.08928 1.01605 1.11545
 C1065 C 1.07388 1.02275 1.10910
 C1066 C 1.06462 1.03860 1.11893
 C1067 C 1.07269 1.04603 1.13529
 H1068 H 1.08492 1.03921 1.14147
 O1069 O 0.98068 0.90538 1.06767
 O1070 O 0.98033 0.88323 1.08933
 C1071 C 0.97391 0.89021 1.07415
 C1072 C 0.95816 0.88085 1.06413
 C1073 C 0.94990 0.86451 1.07153
 H1074 H 0.95527 0.85861 1.08452
 O1075 O 1.01807 1.09295 1.06887
 O1076 O 1.01778 1.11460 1.09098
 C1077 C 1.02430 1.10820 1.07559
 C1078 C 1.03965 1.11825 1.06564
 C1079 C 1.04647 1.13539 1.07248
 H1080 H 1.04015 1.14149 1.08494
 O1081 O 0.90691 0.93120 1.01612
 O1082 O 0.88452 0.90973 1.01591
 C1083 C 0.89143 0.92477 1.02252
 C1084 C 0.88173 0.93452 1.03823
 C1085 C 0.86442 0.92779 1.04523
 H1086 H 0.85765 0.91600 1.03847
 O1087 O 1.09246 1.06776 1.01909
 O1088 O 1.11489 1.08918 1.01946
 C1089 C 1.10789 1.07401 1.02571
 C1090 C 1.11754 1.06383 1.04117
 C1091 C 1.13478 1.07047 1.04834
 H1092 H 1.14145 1.08252 1.04188
 O1093 O 1.01858 1.06721 1.09456
 O1094 O 1.01851 1.08872 1.11678
 C1095 C 1.02515 1.07366 1.10985
 C1096 C 1.04102 1.06374 1.11925
 C1097 C 1.04946 1.07111 1.13554
 H1098 H 1.04406 1.08399 1.14158
 O1099 O 0.98149 0.93058 1.09379
 O1100 O 0.98123 0.90857 1.11560
 C1101 C 0.97500 0.92399 1.10908
 C1102 C 0.95955 0.93412 1.11886
 C1103 C 0.95241 0.92767 1.13615
 H1104 H 0.95904 0.91578 1.14299
 O1105 O 1.09248 1.01695 1.06803
 O1106 O 1.11493 1.01645 1.08952
 C1107 C 1.10793 1.02327 1.07455
 C1108 C 1.11758 1.03907 1.06498
 C1109 C 1.13474 1.04605 1.07204
 H1110 H 1.14105 1.03959 1.08433
 O1111 O 0.90724 0.98017 1.06658
 O1112 O 0.88466 0.98022 1.08802
 C1113 C 0.89171 0.97378 1.07290
 C1114 C 0.88196 0.95840 1.06286
 C1115 C 0.86472 0.95139 1.06969
 H1116 H 0.85846 0.95749 1.08218
 O1117 O 1.06703 1.09401 1.01889
 O1118 O 1.08939 1.11551 1.01929
 C1119 C 1.07385 1.10906 1.02553
 C1120 C 1.06389 1.11873 1.04111
 C1121 C 1.07049 1.13592 1.04809
 H1122 H 1.08240 1.14270 1.04135
 O1123 O 0.93270 0.90542 1.01610
 O1124 O 0.91036 0.88392 1.01587
 C1125 C 0.92566 0.89037 1.02260
 C1126 C 0.93484 0.88077 1.03873
 C1127 C 0.92695 0.86434 1.04625
 H1128 H 0.91492 0.85798 1.03937
 O1129 O 1.06715 0.97971 1.09371
 O1130 O 1.08962 0.97935 1.11518
 C1131 C 1.07421 0.97294 1.10870
 C1132 C 1.06485 0.95695 1.11825
 C1133 C 1.07266 0.94919 1.13468
 H1134 H 1.08484 0.95578 1.14105
 O1135 O 0.93235 1.01676 1.09306
 O1136 O 0.90977 1.01676 1.11449
 C1137 C 0.92530 1.02315 1.10822
 C1138 C 0.93502 1.03848 1.11835
 C1139 C 0.92782 1.04528 1.13547
 H1140 H 0.91523 1.03902 1.14146
 O1141 O 0.98121 1.09283 1.06931
 O1142 O 0.98075 1.11434 1.09155
 C1143 C 0.97439 1.10784 1.07618
 C1144 C 0.95858 1.11746 1.06637
 C1145 C 0.95024 1.13373 1.07395
 H1146 H 0.95566 1.13955 1.08692
 O1147 O 1.01748 0.90464 1.06724
 O1148 O 1.01731 0.88236 1.08878
 C1149 C 1.02371 0.88913 1.07350
 C1150 C 1.03900 0.87930 1.06322
 C1151 C 1.04604 0.86204 1.06972
 H1152 H 1.03942 0.85532 1.08169
 O1153 O 1.09185 0.93061 1.01726
 O1154 O 1.11417 0.90892 1.01733
 C1155 C 1.10728 0.92410 1.02373
 C1156 C 1.11714 0.93402 1.03910
 C1157 C 1.13457 0.92729 1.04577
 H1158 H 1.14086 0.91494 1.03946
 O1159 O 0.90774 1.06742 1.01723
 O1160 O 0.88527 1.08896 1.01755
 C1161 C 0.89216 1.07365 1.02366
 C1162 C 0.88224 1.06331 1.03879
 C1163 C 0.86471 1.06976 1.04556
 H1164 H 0.85799 1.08178 1.03902
 Cu1165 Cu 0.99953 0.91982 1.07841
 Cu1166 Cu 0.99927 0.89320 1.10440
 Cu1167 Cu 0.99993 1.07771 1.07955
 Cu1168 Cu 0.99960 1.10352 1.10624
 Cu1169 Cu 0.92210 0.92054 0.99768
 Cu1170 Cu 0.89527 0.89477 0.99743
 Cu1171 Cu 1.07709 0.91989 0.99869
 Cu1172 Cu 1.10391 0.89384 0.99886
 Cu1173 Cu 0.92283 1.07880 0.99924
 Cu1174 Cu 0.89586 1.10466 0.99965
 Cu1175 Cu 1.07771 1.07889 1.00060
 Cu1176 Cu 1.10466 1.10458 1.00105
 Cu1177 Cu 0.92214 0.99848 1.07762
 Cu1178 Cu 0.89498 0.99851 1.10332
 Cu1179 Cu 1.07742 0.99837 1.07858
 Cu1180 Cu 1.10439 0.99787 1.10437
 C1181 C 1.04889 0.94849 1.11023
 H1182 H 1.04296 0.95428 1.09744
 C1183 C 1.06508 0.93286 1.14281
 C1184 C 0.95096 1.04714 1.11038
 H1185 H 0.95634 1.04223 1.09700
 C1186 C 0.93631 1.06059 1.14454
 C1187 C 0.89073 1.04762 1.04733
 H1188 H 0.90438 1.04273 1.04238
 C1189 C 0.85585 1.06096 1.06088
 C1190 C 1.10878 0.94965 1.04782
 H1191 H 1.09515 0.95469 1.04298
 C1192 C 1.14362 0.93591 1.06101
 C1193 C 1.04750 0.88779 1.04751
 H1194 H 1.04231 0.90122 1.04256
 C1195 C 1.06174 0.85353 1.06102
 C1196 C 0.95096 1.10966 1.04989
 H1197 H 0.95700 1.09691 1.04418
 C1198 C 0.93442 1.14209 1.06529
 C1199 C 0.95103 0.94969 1.11021
 H1200 H 0.95631 0.95460 1.09678
 C1201 C 0.93664 0.93641 1.14455
 C1202 C 1.04866 1.04741 1.11114
 H1203 H 1.04254 1.04187 1.09836
 C1204 C 1.06542 1.06239 1.14358
 C1205 C 0.95057 0.88881 1.04767
 H1206 H 0.95656 0.90164 1.04211
 C1207 C 0.93421 0.85621 1.06276
 C1208 C 1.04832 1.11015 1.04984
 H1209 H 1.04334 1.09676 1.04470
 C1210 C 1.06186 1.14436 1.06379
 C1211 C 0.89029 0.94995 1.04703
 H1212 H 0.90376 0.95507 1.04188
 C1213 C 0.85581 0.93611 1.06099
 C1214 C 1.10915 1.04800 1.04947
 H1215 H 1.09575 1.04294 1.04416
 C1216 C 1.14345 1.06175 1.06384
 O1217 O 0.98076 0.43360 0.40586
 O1218 O 0.98039 0.41181 0.38391
 C1219 C 0.97417 0.42717 0.39059
 C1220 C 0.95861 0.43731 0.38095
 C1221 C 0.95150 0.43081 0.36373
 H1222 H 0.95825 0.41899 0.35689
 O1223 O 1.01854 0.56828 0.40657
 O1224 O 1.01874 0.59051 0.38498
 C1225 C 1.02523 0.57517 0.39147
 C1226 C 1.04109 0.56548 0.38178
 C1227 C 1.04951 0.57328 0.36560
 H1228 H 1.04411 0.58633 0.35990
 O1229 O 0.90501 0.48346 0.43255
 O1230 O 0.88285 0.48387 0.41077
 C1231 C 0.88953 0.47730 0.42600
 C1232 C 0.87946 0.46199 0.43590
 C1233 C 0.86230 0.45512 0.42884
 H1234 H 0.85624 0.46138 0.41633
 O1235 O 1.09410 0.51780 0.43103
 O1236 O 1.11601 0.51778 0.40891
 C1237 C 1.10942 0.52422 0.42422
 C1238 C 1.11932 0.53969 0.43395
 C1239 C 1.13570 0.54774 0.42611
 H1240 H 1.14137 0.54230 0.41304
 O1241 O 0.93020 0.40859 0.48161
 O1242 O 0.90792 0.38702 0.48165
 C1243 C 0.92326 0.39357 0.47502
 C1244 C 0.93270 0.38395 0.45905
 C1245 C 0.92483 0.36757 0.45150
 H1246 H 0.91252 0.36142 0.45814
 O1247 O 1.06960 0.59198 0.48155
 O1248 O 1.09184 0.61360 0.48134
 C1249 C 1.07640 0.60710 0.47497
 C1250 C 1.06647 0.61690 0.45941
 C1251 C 1.07411 0.63326 0.45135
 H1252 H 1.08720 0.63894 0.45676
 O1253 O 0.93104 0.51984 0.40662
 O1254 O 0.90894 0.52025 0.38476
 C1255 C 0.92436 0.52647 0.39141
 C1256 C 0.93434 0.54198 0.38175
 C1257 C 0.92695 0.54994 0.36520
 H1258 H 0.91408 0.54437 0.35920
 O1259 O 1.06787 0.48115 0.40573
 O1260 O 1.08986 0.48108 0.38370
 C1261 C 1.07457 0.47463 0.39048
 C1262 C 1.06491 0.45888 0.38091
 C1263 C 1.07273 0.45105 0.36455
 H1264 H 1.08515 0.45737 0.35830
 O1265 O 1.01710 0.40718 0.43170
 O1266 O 1.01685 0.38523 0.40992
 C1267 C 1.02354 0.39193 0.42507
 C1268 C 1.03952 0.38238 0.43464
 C1269 C 1.04751 0.36596 0.42704
 H1270 H 1.04155 0.35989 0.41444
 O1271 O 0.98137 0.59353 0.43268
 O1272 O 0.98128 0.61571 0.41104
 C1273 C 0.97471 0.60880 0.42618
 C1274 C 0.95873 0.61818 0.43600
 C1275 C 0.95038 0.63449 0.42847
 H1276 H 0.95596 0.64054 0.41564
 O1277 O 0.90570 0.56811 0.48331
 O1278 O 0.88368 0.59009 0.48373
 C1279 C 0.89035 0.57497 0.47699
 C1280 C 0.88059 0.56578 0.46108
 C1281 C 0.86406 0.57372 0.45354
 H1282 H 0.85773 0.58582 0.46029
 O1283 O 1.09418 0.43241 0.48116
 O1284 O 1.11606 0.41029 0.48082
 C1285 C 1.10946 0.42565 0.47456
 C1286 C 1.11931 0.43546 0.45906
 C1287 C 1.13655 0.42856 0.45201
 H1288 H 1.14281 0.41617 0.45827
 O1289 O 0.98157 0.56805 0.40678
 O1290 O 0.98173 0.59020 0.38511
 C1291 C 0.97515 0.57494 0.39158
 C1292 C 0.95933 0.56556 0.38179
 C1293 C 0.95190 0.57317 0.36515
 H1294 H 0.95868 0.58520 0.35876
 O1295 O 1.01772 0.43225 0.40545
 O1296 O 1.01745 0.41036 0.38360
 C1297 C 1.02428 0.42540 0.39027
 C1298 C 1.04045 0.43470 0.38075
 C1299 C 1.04865 0.42692 0.36445
 H1300 H 1.04280 0.41425 0.35848
 O1301 O 1.09389 0.48129 0.43140
 O1302 O 1.11591 0.48128 0.40939
 C1303 C 1.10931 0.47494 0.42475
 C1304 C 1.11929 0.45960 0.43470
 C1305 C 1.13666 0.45269 0.42798
 H1306 H 1.14335 0.45939 0.41603
 O1307 O 0.90536 0.52004 0.43261
 O1308 O 0.88322 0.52051 0.41079
 C1309 C 0.89007 0.52677 0.42605
 C1310 C 0.88052 0.54241 0.43600
 C1311 C 0.86408 0.55071 0.42853
 H1312 H 0.85811 0.54534 0.41560
 O1313 O 0.93207 0.59311 0.48316
 O1314 O 0.91004 0.61508 0.48348
 C1315 C 0.92529 0.60834 0.47676
 C1316 C 0.93475 0.61793 0.46084
 C1317 C 0.92680 0.63429 0.45323
 H1318 H 0.91450 0.64053 0.45988
 O1319 O 1.06764 0.40743 0.48093
 O1320 O 1.08953 0.38532 0.48055
 C1321 C 1.07416 0.39221 0.47428
 C1322 C 1.06422 0.38268 0.45870
 C1323 C 1.07179 0.36618 0.45104
 H1324 H 1.08423 0.35989 0.45735
 O1325 O 1.06753 0.51788 0.40604
 O1326 O 1.08945 0.51778 0.38394
 C1327 C 1.07420 0.52438 0.39079
 C1328 C 1.06472 0.54037 0.38139
 C1329 C 1.07264 0.54814 0.36508
 H1330 H 1.08475 0.54139 0.35862
 O1331 O 0.93092 0.48323 0.40672
 O1332 O 0.90883 0.48360 0.38485
 C1333 C 0.92418 0.47697 0.39143
 C1334 C 0.93404 0.46152 0.38149
 C1335 C 0.92699 0.45466 0.36439
 H1336 H 0.91439 0.46091 0.35837
 O1337 O 1.01845 0.59304 0.43312
 O1338 O 1.01838 0.61529 0.41155
 C1339 C 1.02499 0.60830 0.42663
 C1340 C 1.04106 0.61758 0.43612
 C1341 C 1.04869 0.63406 0.42855
 H1342 H 1.04179 0.64071 0.41669
 O1343 O 0.97998 0.40761 0.43131
 O1344 O 0.97958 0.38570 0.40949
 C1345 C 0.97307 0.39258 0.42467
 C1346 C 0.95691 0.38342 0.43438
 C1347 C 0.94862 0.36712 0.42693
 H1348 H 0.95434 0.36097 0.41420
 O1349 O 1.09519 0.56595 0.48158
 O1350 O 1.11744 0.58755 0.48154
 C1351 C 1.11053 0.57249 0.47501
 C1352 C 1.11996 0.56304 0.45902
 C1353 C 1.13643 0.57070 0.45114
 H1354 H 1.14300 0.58269 0.45776
 O1355 O 0.90411 0.43418 0.48230
 O1356 O 0.88179 0.41266 0.48236
 C1357 C 0.88862 0.42782 0.47590
 C1358 C 0.87892 0.43781 0.46031
 C1359 C 0.86170 0.43114 0.45303
 H1360 H 0.85491 0.41917 0.45952
 Cu1361 Cu 0.99891 0.42232 0.42077
 Cu1362 Cu 0.99849 0.39605 0.39458
 Cu1363 Cu 0.99996 0.57851 0.42195
 Cu1364 Cu 1.00003 0.60518 0.39603
 Cu1365 Cu 0.92031 0.50160 0.42180
 Cu1366 Cu 0.89373 0.50206 0.39560
 Cu1367 Cu 1.07863 0.49951 0.42076
 Cu1368 Cu 1.10495 0.49945 0.39421
 C1369 C 0.94994 0.45283 0.38958
 H1370 H 0.95520 0.45779 0.40297
 C1371 C 0.93561 0.43932 0.35537
 C1372 C 1.04880 0.54898 0.38950
 H1373 H 1.04277 0.54314 0.40223
 C1374 C 1.06542 0.56476 0.35724
 C1375 C 0.88755 0.45337 0.45175
 H1376 H 0.90096 0.45840 0.45705
 C1377 C 0.85330 0.43970 0.43725
 C1378 C 1.11164 0.54739 0.45046
 H1379 H 1.09877 0.54159 0.45632
 C1380 C 1.14424 0.56338 0.43453
 C1381 C 0.94886 0.39167 0.45050
 H1382 H 0.95487 0.40443 0.45612
 C1383 C 0.93251 0.35914 0.43535
 C1384 C 1.04991 0.60921 0.45170
 H1385 H 1.04421 0.59633 0.45746
 C1386 C 1.06537 0.64184 0.43579
 C1387 C 0.95060 0.54982 0.38985
 H1388 H 0.95610 0.54407 0.40285
 C1389 C 0.93558 0.56563 0.35685
 C1390 C 1.04866 0.45074 0.38878
 H1391 H 1.04272 0.45658 0.40155
 C1392 C 1.06492 0.43493 0.35633
 C1393 C 1.04795 0.39058 0.45054
 H1394 H 1.04221 0.40349 0.45622
 C1395 C 1.06378 0.35789 0.43506
 C1396 C 0.95084 0.61007 0.45225
 H1397 H 0.95688 0.59728 0.45792
 C1398 C 0.93429 0.64254 0.43692
 C1399 C 0.88859 0.54999 0.45234
 H1400 H 0.90150 0.54397 0.45794
 C1401 C 0.85583 0.56648 0.43713
 C1402 C 1.11089 0.45107 0.45041
 H1403 H 1.09740 0.45620 0.45554
 C1404 C 1.14539 0.43710 0.43650
 O1405 O 1.01861 0.43078 0.59307
 O1406 O 1.01853 0.40863 0.61474
 C1407 C 1.02512 0.42389 0.60823
 C1408 C 1.04078 0.43349 0.61812
 C1409 C 1.04771 0.42650 0.63527
 H1410 H 1.04135 0.41412 0.64140
 O1411 O 0.98270 0.56773 0.59348
 O1412 O 0.98316 0.58962 0.61535
 C1413 C 0.97642 0.57450 0.60878
 C1414 C 0.96061 0.56516 0.61869
 C1415 C 0.95303 0.57317 0.63504
 H1416 H 0.95959 0.58550 0.64100
 O1417 O 0.90698 0.51824 0.56963
 O1418 O 0.88510 0.51832 0.59179
 C1419 C 0.89163 0.52464 0.57638
 C1420 C 0.88156 0.53995 0.56647
 C1421 C 0.86418 0.54664 0.57329
 H1422 H 0.85794 0.54025 0.58565
 O1423 O 1.09465 0.48013 0.56813
 O1424 O 1.11667 0.47978 0.59007
 C1425 C 1.10999 0.47354 0.57473
 C1426 C 1.11973 0.45805 0.56472
 C1427 C 1.13687 0.45061 0.57148
 H1428 H 1.14355 0.45693 0.58360
 O1429 O 1.06794 0.40662 0.51754
 O1430 O 1.08981 0.38449 0.51709
 C1431 C 1.07450 0.39119 0.52367
 C1432 C 1.06471 0.38127 0.53911
 C1433 C 1.07230 0.36459 0.54638
 H1434 H 1.08455 0.35832 0.53970
 O1435 O 0.93191 0.59361 0.51985
 O1436 O 0.90990 0.61559 0.52017
 C1437 C 0.92536 0.60891 0.52634
 C1438 C 0.93556 0.61870 0.54160
 C1439 C 0.92885 0.63587 0.54867
 H1440 H 0.91665 0.64248 0.54223
 O1441 O 0.93319 0.48183 0.59531
 O1442 O 0.91153 0.48198 0.61766
 C1443 C 0.92675 0.47545 0.61070
 C1444 C 0.93668 0.45975 0.62016
 C1445 C 0.93021 0.45280 0.63749
 H1446 H 0.91858 0.45975 0.64458
 O1447 O 1.06858 0.51659 0.59393
 O1448 O 1.09046 0.51636 0.61600
 C1449 C 1.07517 0.52292 0.60925
 C1450 C 1.06527 0.53852 0.61891
 C1451 C 1.07180 0.54521 0.63629
 H1452 H 1.08355 0.53826 0.64318
 O1453 O 0.98110 0.40608 0.56730
 O1454 O 0.98108 0.38379 0.58882
 C1455 C 0.97448 0.39082 0.57375
 C1456 C 0.95856 0.38152 0.56395
 C1457 C 0.95140 0.36436 0.57056
 H1458 H 0.95825 0.35741 0.58227
 O1459 O 1.01966 0.59315 0.56753
 O1460 O 1.02011 0.61500 0.58943
 C1461 C 1.02635 0.60830 0.57408
 C1462 C 1.04193 0.61787 0.56404
 C1463 C 1.04889 0.63515 0.57045
 H1464 H 1.04212 0.64201 0.58227
 O1465 O 0.90483 0.43384 0.51918
 O1466 O 0.88254 0.41229 0.51924
 C1467 C 0.88954 0.42727 0.52587
 C1468 C 0.88023 0.43678 0.54198
 C1469 C 0.86305 0.43006 0.54931
 H1470 H 0.85601 0.41846 0.54247
 O1471 O 1.09521 0.56602 0.51840
 O1472 O 1.11746 0.58763 0.51837
 C1473 C 1.11058 0.57252 0.52491
 C1474 C 1.12016 0.56273 0.54069
 C1475 C 1.13726 0.56958 0.54799
 H1476 H 1.14402 0.58147 0.54133
 O1477 O 1.01958 0.56725 0.59320
 O1478 O 1.01999 0.58904 0.61515
 C1479 C 1.02616 0.57367 0.60849
 C1480 C 1.04140 0.56339 0.61841
 C1481 C 1.04819 0.56991 0.63573
 H1482 H 1.04202 0.58237 0.64194
 O1483 O 0.98178 0.43133 0.59346
 O1484 O 0.98168 0.40912 0.61508
 C1485 C 0.97543 0.42461 0.60876
 C1486 C 0.96034 0.43473 0.61905
 C1487 C 0.95356 0.42786 0.63628
 H1488 H 0.95962 0.41518 0.64215
 O1489 O 1.09454 0.51674 0.56827
 O1490 O 1.11653 0.51650 0.59022
 C1491 C 1.10987 0.52310 0.57498
 C1492 C 1.11974 0.53865 0.56523
 C1493 C 1.13675 0.54582 0.57240
 H1494 H 1.14281 0.53971 0.58499
 O1495 O 0.90679 0.48176 0.57007
 O1496 O 0.88504 0.48180 0.59234
 C1497 C 0.89148 0.47540 0.57693
 C1498 C 0.88131 0.46018 0.56705
 C1499 C 0.86420 0.45317 0.57423
 H1500 H 0.85834 0.45912 0.58698
 O1501 O 1.06961 0.59209 0.51820
 O1502 O 1.09179 0.61377 0.51802
 C1503 C 1.07636 0.60732 0.52448
 C1504 C 1.06642 0.61735 0.53980
 C1505 C 1.07326 0.63456 0.54645
 H1506 H 1.08571 0.64069 0.54006
 O1507 O 0.93040 0.40775 0.51840
 O1508 O 0.90816 0.38614 0.51843
 C1509 C 0.92367 0.39250 0.52477
 C1510 C 0.93369 0.38238 0.54006
 C1511 C 0.92667 0.36530 0.54700
 H1512 H 0.91402 0.35936 0.54087
 O1513 O 1.06856 0.47995 0.59374
 O1514 O 1.09047 0.47966 0.61578
 C1515 C 1.07514 0.47334 0.60899
 C1516 C 1.06516 0.45774 0.61856
 C1517 C 1.07178 0.45063 0.63579
 H1518 H 1.08368 0.45728 0.64262
 O1519 O 0.93283 0.51854 0.59527
 O1520 O 0.91105 0.51879 0.61750
 C1521 C 0.92622 0.52526 0.61048
 C1522 C 0.93598 0.54120 0.61962
 C1523 C 0.92845 0.54959 0.63592
 H1524 H 0.91569 0.54401 0.64223
 O1525 O 0.98268 0.59364 0.56804
 O1526 O 0.98317 0.61553 0.58990
 C1527 C 0.97637 0.60892 0.57479
 C1528 C 0.96055 0.61873 0.56528
 C1529 C 0.95354 0.63581 0.57228
 H1530 H 0.96008 0.64205 0.58452
 O1531 O 1.01813 0.40554 0.56704
 O1532 O 1.01818 0.38333 0.58865
 C1533 C 1.02467 0.39023 0.57349
 C1534 C 1.04047 0.38078 0.56360
 C1535 C 1.04851 0.36426 0.57092
 H1536 H 1.04274 0.35812 0.58362
 O1537 O 1.09421 0.43188 0.51797
 O1538 O 1.11606 0.40974 0.51754
 C1539 C 1.10951 0.42491 0.52430
 C1540 C 1.11945 0.43425 0.54003
 C1541 C 1.13652 0.42693 0.54706
 H1542 H 1.14265 0.41456 0.54064
 O1543 O 0.90622 0.56764 0.52009
 O1544 O 0.88416 0.58957 0.52046
 C1545 C 0.89089 0.57425 0.52672
 C1546 C 0.88117 0.56427 0.54223
 C1547 C 0.86373 0.57075 0.54923
 H1548 H 0.85686 0.58267 0.54265
 Cu1549 Cu 0.99989 0.42062 0.57802
 Cu1550 Cu 0.99983 0.39395 0.60396
 Cu1551 Cu 1.00115 0.57828 0.57832
 Cu1552 Cu 1.00170 0.60449 0.60467
 Cu1553 Cu 0.91957 0.42327 0.50038
 Cu1554 Cu 0.89288 0.39737 0.50042
 Cu1555 Cu 1.07884 0.42186 0.49946
 Cu1556 Cu 1.10506 0.39524 0.49894
 Cu1557 Cu 0.92117 0.57839 0.50165
 Cu1558 Cu 0.89474 0.60479 0.50203
 Cu1559 Cu 1.08019 0.57682 0.49996
 Cu1560 Cu 1.10690 0.60277 0.49983
 Cu1561 Cu 0.92218 0.50006 0.58039
 Cu1562 Cu 0.89602 0.50021 0.60709
 Cu1563 Cu 1.07939 0.49836 0.57883
 Cu1564 Cu 1.10574 0.49805 0.60523
 C1565 C 1.04953 0.44919 0.60996
 H1566 H 1.04448 0.45445 0.59657
 C1567 C 1.06319 0.43497 0.64426
 C1568 C 0.95213 0.54907 0.61118
 H1569 H 0.95777 0.54299 0.59839
 C1570 C 0.93682 0.56571 0.64361
 C1571 C 0.88985 0.54872 0.55083
 H1572 H 0.90343 0.54381 0.54570
 C1573 C 0.85513 0.56202 0.56478
 C1574 C 1.11128 0.44990 0.54886
 H1575 H 1.09796 0.45540 0.54371
 C1576 C 1.14539 0.43501 0.56277
 C1577 C 1.04863 0.38913 0.54764
 H1578 H 1.04287 0.40215 0.54223
 C1579 C 1.06456 0.35615 0.56248
 C1580 C 0.95156 0.61039 0.54984
 H1581 H 0.95667 0.59705 0.54459
 C1582 C 0.93770 0.64453 0.56407
 C1583 C 0.95192 0.45077 0.61118
 H1584 H 0.95683 0.45590 0.59770
 C1585 C 0.93851 0.43679 0.64564
 C1586 C 1.04992 0.54758 0.61019
 H1587 H 1.04495 0.54267 0.59667
 C1588 C 1.06336 0.56093 0.64480
 C1589 C 0.94973 0.39030 0.54856
 H1590 H 0.95502 0.40363 0.54352
 C1591 C 0.93542 0.35615 0.56223
 C1592 C 1.05066 0.60921 0.54857
 H1593 H 1.04553 0.59576 0.54372
 C1594 C 1.06458 0.64360 0.56176
 C1595 C 0.88912 0.45197 0.55085
 H1596 H 0.90248 0.45709 0.54542
 C1597 C 0.85492 0.43813 0.56547
 C1598 C 1.11163 0.54713 0.54930
 H1599 H 1.09834 0.54190 0.54390
 C1600 C 1.14565 0.56128 0.56389
 O1601 O 0.48280 0.93160 0.40659
 O1602 O 0.48327 0.90929 0.38516
 C1603 C 0.47658 0.92463 0.39139
 C1604 C 0.46086 0.93396 0.38125
 C1605 C 0.45354 0.92595 0.36481
 H1606 H 0.46039 0.91371 0.35888
 O1607 O 0.51922 1.06685 0.40536
 O1608 O 0.51941 1.08883 0.38352
 C1609 C 0.52589 1.07357 0.39019
 C1610 C 0.54164 1.06383 0.38047
 C1611 C 0.54871 1.07073 0.36337
 H1612 H 0.54235 1.08311 0.35718
 O1613 O 0.40659 0.98158 0.42980
 O1614 O 0.38479 0.98141 0.40764
 C1615 C 0.39120 0.97529 0.42318
 C1616 C 0.38088 0.96038 0.43339
 C1617 C 0.36353 0.95377 0.42657
 H1618 H 0.35756 0.95988 0.41394
 O1619 O 0.59518 1.01832 0.43148
 O1620 O 0.61746 1.01808 0.40974
 C1621 C 0.61054 1.02476 0.42483
 C1622 C 0.62001 1.04058 0.43448
 C1623 C 0.63636 1.04889 0.42685
 H1624 H 0.64243 1.04338 0.41399
 O1625 O 0.43060 0.90779 0.48110
 O1626 O 0.40837 0.88618 0.48090
 C1627 C 0.42386 0.89265 0.47455
 C1628 C 0.43390 0.88283 0.45904
 C1629 C 0.42629 0.86650 0.45101
 H1630 H 0.41313 0.86090 0.45640
 O1631 O 0.56828 1.09252 0.48118
 O1632 O 0.59016 1.11449 0.48131
 C1633 C 0.57488 1.10780 0.47477
 C1634 C 0.56496 1.11752 0.45920
 C1635 C 0.57152 1.13484 0.45237
 H1636 H 0.58339 1.14157 0.45917
 O1637 O 0.43285 1.01757 0.40361
 O1638 O 0.41114 1.01741 0.38138
 C1639 C 0.42631 1.02399 0.38826
 C1640 C 0.43604 1.03979 0.37881
 C1641 C 0.42845 1.04793 0.36244
 H1642 H 0.41569 1.04219 0.35634
 O1643 O 0.56944 0.98134 0.40639
 O1644 O 0.59163 0.98091 0.38456
 C1645 C 0.57622 0.97462 0.39127
 C1646 C 0.56637 0.95896 0.38179
 C1647 C 0.57309 0.95190 0.36460
 H1648 H 0.58497 0.95862 0.35775
 O1649 O 0.51938 0.90615 0.43326
 O1650 O 0.51988 0.88392 0.41176
 C1651 C 0.52615 0.89088 0.42694
 C1652 C 0.54194 0.88154 0.43697
 C1653 C 0.55025 0.86508 0.42978
 H1654 H 0.54469 0.85885 0.41707
 O1655 O 0.48166 1.09229 0.43070
 O1656 O 0.48198 1.11435 0.40895
 C1657 C 0.47522 1.10758 0.42405
 C1658 C 0.45939 1.11731 0.43369
 C1659 C 0.45249 1.13449 0.42677
 H1660 H 0.45904 1.14075 0.41451
 O1661 O 0.40488 1.06696 0.47937
 O1662 O 0.38269 1.08876 0.47868
 C1663 C 0.38966 1.07352 0.47248
 C1664 C 0.38032 1.06369 0.45666
 C1665 C 0.36304 1.07029 0.44941
 H1666 H 0.35600 1.08202 0.45612
 O1667 O 0.59414 0.93318 0.48311
 O1668 O 0.61629 0.91134 0.48383
 C1669 C 0.60958 0.92640 0.47690
 C1670 C 0.61953 0.93577 0.46109
 C1671 C 0.63659 0.92839 0.45408
 H1672 H 0.64265 0.91599 0.46055
 O1673 O 0.48227 1.06683 0.40473
 O1674 O 0.48250 1.08890 0.38297
 C1675 C 0.47597 1.07361 0.38942
 C1676 C 0.46038 1.06404 0.37943
 C1677 C 0.45274 1.07182 0.36295
 H1678 H 0.45916 1.08419 0.35687
 O1679 O 0.51977 0.93168 0.40729
 O1680 O 0.52015 0.90947 0.38575
 C1681 C 0.52649 0.92483 0.39220
 C1682 C 0.54213 0.93457 0.38231
 C1683 C 0.54917 0.92763 0.36518
 H1684 H 0.54292 0.91521 0.35907
 O1685 O 0.59500 0.98170 0.43238
 O1686 O 0.61734 0.98125 0.41070
 C1687 C 0.61042 0.97506 0.42602
 C1688 C 0.61999 0.95955 0.43623
 C1689 C 0.63713 0.95202 0.42954
 H1690 H 0.64390 0.95828 0.41740
 O1691 O 0.40675 1.01802 0.42914
 O1692 O 0.38495 1.01787 0.40698
 C1693 C 0.39143 1.02440 0.42229
 C1694 C 0.38129 1.03981 0.43203
 C1695 C 0.36407 1.04670 0.42494
 H1696 H 0.35810 1.04053 0.41238
 O1697 O 0.43075 1.09260 0.47969
 O1698 O 0.40863 1.11448 0.47896
 C1699 C 0.42420 1.10779 0.47295
 C1700 C 0.43449 1.11744 0.45759
 C1701 C 0.42793 1.13470 0.45057
 H1702 H 0.41585 1.14143 0.45713
 O1703 O 0.56833 0.90751 0.48338
 O1704 O 0.59048 0.88567 0.48417
 C1705 C 0.57522 0.89219 0.47734
 C1706 C 0.56584 0.88222 0.46172
 C1707 C 0.57379 0.86569 0.45448
 H1708 H 0.58609 0.85959 0.46123
 O1709 O 0.56944 1.01793 0.40565
 O1710 O 0.59160 1.01763 0.38379
 C1711 C 0.57618 1.02417 0.39030
 C1712 C 0.56623 1.03963 0.38039
 C1713 C 0.57302 1.04666 0.36315
 H1714 H 0.58509 1.04003 0.35650
 O1715 O 0.43272 0.98079 0.40425
 O1716 O 0.41101 0.98048 0.38202
 C1717 C 0.42618 0.97397 0.38911
 C1718 C 0.43603 0.95789 0.38012
 C1719 C 0.42868 0.94941 0.36383
 H1720 H 0.41588 0.95495 0.35753
 O1721 O 0.51869 1.09235 0.43124
 O1722 O 0.51892 1.11436 0.40942
 C1723 C 0.52523 1.10762 0.42473
 C1724 C 0.54067 1.11738 0.43477
 C1725 C 0.54754 1.13459 0.42806
 H1726 H 0.54124 1.14083 0.41566
 O1727 O 0.48226 0.90660 0.43304
 O1728 O 0.48277 0.88432 0.41159
 C1729 C 0.47581 0.89134 0.42651
 C1730 C 0.45950 0.88210 0.43583
 C1731 C 0.45184 0.86562 0.42826
 H1732 H 0.45880 0.85897 0.41644
 O1733 O 0.59435 1.06687 0.48146
 O1734 O 0.61622 1.08883 0.48163
 C1735 C 0.60968 1.07364 0.47506
 C1736 C 0.61958 1.06430 0.45925
 C1737 C 0.63602 1.07223 0.45157
 H1738 H 0.64218 1.08445 0.45817
 O1739 O 0.40464 0.93354 0.48081
 O1740 O 0.38233 0.91200 0.48077
 C1741 C 0.38927 0.92708 0.47424
 C1742 C 0.37981 0.93685 0.45840
 C1743 C 0.36241 0.93044 0.45135
 H1744 H 0.35532 0.91883 0.45819
 Cu1745 Cu 0.50105 0.92121 0.42223
 Cu1746 Cu 0.50156 0.89450 0.39645
 Cu1747 Cu 0.50043 1.07737 0.42020
 Cu1748 Cu 0.50073 1.10382 0.39404
 Cu1749 Cu 0.42198 0.99950 0.41885
 Cu1750 Cu 0.39585 0.99926 0.39222
 Cu1751 Cu 0.58006 0.99988 0.42114
 Cu1752 Cu 0.60676 0.99940 0.39503
 C1753 C 0.45217 0.95007 0.38866
 H1754 H 0.45765 0.95618 0.40146
 C1755 C 0.43729 0.93332 0.35613
 C1756 C 0.55039 1.04819 0.38877
 H1757 H 0.54520 1.04302 0.40214
 C1758 C 0.56433 1.06224 0.35451
 C1759 C 0.38881 0.95197 0.44943
 H1760 H 0.40235 0.95681 0.45457
 C1761 C 0.35416 0.93882 0.43542
 C1762 C 0.61181 1.04835 0.45074
 H1763 H 0.59897 1.04234 0.45645
 C1764 C 0.64438 1.06486 0.43523
 C1765 C 0.45055 0.89047 0.45137
 H1766 H 0.45625 0.90331 0.45714
 C1767 C 0.43508 0.85784 0.43551
 C1768 C 0.54938 1.10903 0.45043
 H1769 H 0.54437 1.09559 0.45546
 C1770 C 0.56291 1.14348 0.43677
 C1771 C 0.45208 1.04789 0.38710
 H1772 H 0.45773 1.04200 0.39998
 C1773 C 0.43661 1.06406 0.35448
 C1774 C 0.55074 0.95032 0.39042
 H1775 H 0.54560 0.95555 0.40378
 C1776 C 0.56462 0.93621 0.35617
 C1777 C 0.54978 0.88992 0.45302
 H1778 H 0.54377 0.90283 0.45838
 C1779 C 0.56629 0.85714 0.43838
 C1780 C 0.45037 1.10897 0.44919
 H1781 H 0.45538 1.09557 0.45439
 C1782 C 0.43678 1.14332 0.43512
 C1783 C 0.38922 1.04832 0.44798
 H1784 H 0.40266 1.04330 0.45333
 C1785 C 0.35481 1.06193 0.43352
 C1786 C 0.61143 0.95144 0.45215
 H1787 H 0.59810 0.95699 0.45725
 C1788 C 0.64553 0.93638 0.43832
 O1789 O 0.51610 0.93313 0.59422
 O1790 O 0.51586 0.91123 0.61615
 C1791 C 0.52250 0.92640 0.60952
 C1792 C 0.53813 0.93605 0.61942
 C1793 C 0.54521 0.92890 0.63644
 H1794 H 0.53897 0.91640 0.64246
 O1795 O 0.47919 1.06965 0.59251
 O1796 O 0.47904 1.09198 0.61392
 C1797 C 0.47257 1.07665 0.60758
 C1798 C 0.45672 1.06725 0.61743
 C1799 C 0.44910 1.07503 0.63390
 H1800 H 0.45569 1.08727 0.64003
 O1801 O 0.40452 1.01964 0.56731
 O1802 O 0.38205 1.01981 0.58885
 C1803 C 0.38892 1.02600 0.57353
 C1804 C 0.37896 1.04108 0.56314
 C1805 C 0.36164 1.04813 0.56978
 H1806 H 0.35539 1.04219 0.58236
 O1807 O 0.59222 0.98272 0.56977
 O1808 O 0.61394 0.98286 0.59201
 C1809 C 0.60758 0.97643 0.57662
 C1810 C 0.61779 0.96116 0.56678
 C1811 C 0.63523 0.95446 0.57356
 H1812 H 0.64172 0.96112 0.58560
 O1813 O 0.56778 0.90802 0.52004
 O1814 O 0.58995 0.88621 0.52083
 C1815 C 0.57442 0.89290 0.52689
 C1816 C 0.56422 0.88333 0.54239
 C1817 C 0.57161 0.86686 0.55052
 H1818 H 0.58466 0.86091 0.54515
 O1819 O 0.42994 1.09308 0.51635
 O1820 O 0.40775 1.11488 0.51562
 C1821 C 0.42304 1.10838 0.52245
 C1822 C 0.43247 1.11838 0.53810
 C1823 C 0.42461 1.13497 0.54534
 H1824 H 0.41231 1.14106 0.53860
 O1825 O 0.43021 0.98367 0.59420
 O1826 O 0.40788 0.98385 0.61588
 C1827 C 0.42333 0.97734 0.60944
 C1828 C 0.43309 0.96178 0.61932
 C1829 C 0.42607 0.95476 0.63643
 H1830 H 0.41364 0.96112 0.64270
 O1831 O 0.56547 1.01927 0.59476
 O1832 O 0.58704 1.01946 0.61712
 C1833 C 0.57181 1.02585 0.61007
 C1834 C 0.56174 1.04158 0.61936
 C1835 C 0.56829 1.04881 0.63651
 H1836 H 0.58006 1.04204 0.64355
 O1837 O 0.47899 0.90779 0.56841
 O1838 O 0.47873 0.88589 0.59033
 C1839 C 0.47231 0.89263 0.57506
 C1840 C 0.45656 0.88308 0.56522
 C1841 C 0.44855 0.86662 0.57268
 H1842 H 0.45421 0.86069 0.58553
 O1843 O 0.51661 1.09458 0.56662
 O1844 O 0.51646 1.11691 0.58802
 C1845 C 0.52325 1.10979 0.57309
 C1846 C 0.53953 1.11884 0.56358
 C1847 C 0.54772 1.13516 0.57107
 H1848 H 0.54174 1.14147 0.58359
 O1849 O 0.40462 0.93385 0.51767
 O1850 O 0.38237 0.91225 0.51765
 C1851 C 0.38921 0.92737 0.52418
 C1852 C 0.37955 0.93715 0.53993
 C1853 C 0.36233 0.93035 0.54712
 H1854 H 0.35558 0.91849 0.54046
 O1855 O 0.59381 1.06704 0.51836
 O1856 O 0.61585 1.08884 0.51846
 C1857 C 0.60902 1.07372 0.52503
 C1858 C 0.61840 1.06418 0.54106
 C1859 C 0.63562 1.07089 0.54822
 H1860 H 0.64265 1.08245 0.54125
 O1861 O 0.51606 1.06931 0.59277
 O1862 O 0.51591 1.09159 0.61423
 C1863 C 0.52237 1.07615 0.60799
 C1864 C 0.53771 1.06630 0.61824
 C1865 C 0.54463 1.07345 0.63527
 H1866 H 0.53847 1.08612 0.64104
 O1867 O 0.47919 0.93366 0.59405
 O1868 O 0.47898 0.91179 0.61600
 C1869 C 0.47268 0.92713 0.60937
 C1870 C 0.45724 0.93719 0.61923
 C1871 C 0.45016 0.93048 0.63642
 H1872 H 0.45679 0.91845 0.64302
 O1873 O 0.59194 1.01920 0.56952
 O1874 O 0.61362 1.01940 0.59179
 C1875 C 0.60721 1.02566 0.57631
 C1876 C 0.61738 1.04084 0.56626
 C1877 C 0.63451 1.04785 0.57330
 H1878 H 0.64041 1.04194 0.58605
 O1879 O 0.40497 0.98312 0.56790
 O1880 O 0.38254 0.98325 0.58949
 C1881 C 0.38953 0.97668 0.57439
 C1882 C 0.37984 0.96113 0.56451
 C1883 C 0.36270 0.95405 0.57150
 H1884 H 0.35650 0.96016 0.58402
 O1885 O 0.56770 1.09261 0.51785
 O1886 O 0.58975 1.11442 0.51792
 C1887 C 0.57430 1.10786 0.52425
 C1888 C 0.56439 1.11780 0.53967
 C1889 C 0.57217 1.13421 0.54721
 H1890 H 0.58475 1.14017 0.54089
 O1891 O 0.43016 0.90778 0.51787
 O1892 O 0.40798 0.88611 0.51775
 C1893 C 0.42328 0.89266 0.52438
 C1894 C 0.43273 0.88303 0.54032
 C1895 C 0.42510 0.86648 0.54786
 H1896 H 0.41298 0.86010 0.54115
 O1897 O 0.56586 0.98255 0.59509
 O1898 O 0.58747 0.98266 0.61742
 C1899 C 0.57232 0.97609 0.61047
 C1900 C 0.56244 0.96038 0.61997
 C1901 C 0.56922 0.95307 0.63707
 H1902 H 0.58120 0.95963 0.64386
 O1903 O 0.42972 1.02040 0.59370
 O1904 O 0.40733 1.02068 0.61531
 C1905 C 0.42268 1.02717 0.60869
 C1906 C 0.43219 1.04317 0.61804
 C1907 C 0.42460 1.05132 0.63445
 H1908 H 0.41187 1.04557 0.64065
 O1909 O 0.47943 1.09472 0.56617
 O1910 O 0.47921 1.11707 0.58755
 C1911 C 0.47271 1.11001 0.57250
 C1912 C 0.45669 1.11922 0.56261
 C1913 C 0.44839 1.13566 0.56984
 H1914 H 0.45408 1.14188 0.58249
 O1915 O 0.51607 0.90790 0.56816
 O1916 O 0.51581 0.88598 0.59006
 C1917 C 0.52254 0.89269 0.57491
 C1918 C 0.53865 0.88314 0.56559
 C1919 C 0.54611 0.86660 0.57331
 H1920 H 0.53915 0.86014 0.58524
 O1921 O 0.59359 0.93376 0.51997
 O1922 O 0.61579 0.91197 0.52060
 C1923 C 0.60888 0.92724 0.52674
 C1924 C 0.61842 0.93718 0.54231
 C1925 C 0.63577 0.93063 0.54932
 H1926 H 0.64238 0.91845 0.54298
 O1927 O 0.40404 1.06745 0.51623
 O1928 O 0.38182 1.08921 0.51552
 C1929 C 0.38854 1.07414 0.52238
 C1930 C 0.37867 1.06462 0.53811
 C1931 C 0.36130 1.07149 0.54498
 H1932 H 0.35454 1.08328 0.53808
 Cu1933 Cu 0.49756 0.92279 0.57899
 Cu1934 Cu 0.49731 0.89649 0.60529
 Cu1935 Cu 0.49785 1.07989 0.57732
 Cu1936 Cu 0.49765 1.10667 0.60303
 Cu1937 Cu 0.41970 0.92291 0.49934
 Cu1938 Cu 0.39304 0.89698 0.49925
 Cu1939 Cu 0.57876 0.92283 0.50158
 Cu1940 Cu 0.60536 0.89662 0.50244
 Cu1941 Cu 0.41958 1.07780 0.49799
 Cu1942 Cu 0.39299 1.10400 0.49711
 Cu1943 Cu 0.57887 1.07752 0.49969
 Cu1944 Cu 0.60522 1.10380 0.49984
 Cu1945 Cu 0.41965 1.00171 0.57868
 Cu1946 Cu 0.39271 1.00191 0.60457
 Cu1947 Cu 0.57668 1.00091 0.58009
 Cu1948 Cu 0.60265 1.00113 0.60686
 C1949 C 0.54675 0.95188 0.61138
 H1950 H 0.54157 0.95728 0.59811
 C1951 C 0.56072 0.93730 0.64541
 C1952 C 0.44831 1.05121 0.60975
 H1953 H 0.45401 1.04531 0.59690
 C1954 C 0.43291 1.06736 0.64242
 C1955 C 0.38725 1.04928 0.54719
 H1956 H 0.40077 1.04409 0.54219
 C1957 C 0.35268 1.06331 0.56082
 C1958 C 0.60963 0.95256 0.55101
 H1959 H 0.59607 0.95747 0.54586
 C1960 C 0.64434 0.93919 0.56490
 C1961 C 0.54766 0.89130 0.54999
 H1962 H 0.54213 0.90423 0.54414
 C1963 C 0.56272 0.85849 0.56609
 C1964 C 0.44865 1.11074 0.54668
 H1965 H 0.45466 1.09783 0.54129
 C1966 C 0.43227 1.14362 0.56135
 C1967 C 0.44878 0.95299 0.61094
 H1968 H 0.45403 0.95808 0.59756
 C1969 C 0.43451 0.93910 0.64511
 C1970 C 0.54628 1.05027 0.61047
 H1971 H 0.54128 1.04491 0.59714
 C1972 C 0.55991 1.06482 0.64454
 C1973 C 0.44859 0.89109 0.54898
 H1974 H 0.45439 0.90399 0.54339
 C1975 C 0.43274 0.85826 0.56417
 C1976 C 0.54795 1.11031 0.54781
 H1977 H 0.54206 1.09748 0.54223
 C1978 C 0.56417 1.14284 0.56307
 C1979 C 0.38809 0.95267 0.54864
 H1980 H 0.40148 0.95785 0.54336
 C1981 C 0.35381 0.93868 0.56294
 C1982 C 0.60953 1.04900 0.55005
 H1983 H 0.59616 1.04388 0.54474
 C1984 C 0.64378 1.06285 0.56437
 O1985 O 0.48258 0.43308 0.90644
 O1986 O 0.48227 0.41171 0.88408
 C1987 C 0.47587 0.42684 0.89113
 C1988 C 0.45998 0.43689 0.88185
 C1989 C 0.45171 0.42963 0.86544
 H1990 H 0.45733 0.41689 0.85929
 O1991 O 0.52088 0.56854 0.90723
 O1992 O 0.52131 0.59044 0.88531
 C1993 C 0.52767 0.57516 0.89206
 C1994 C 0.54352 0.56525 0.88259
 C1995 C 0.55174 0.57257 0.86613
 H1996 H 0.54612 0.58536 0.86005
 O1997 O 0.40702 0.48398 0.93286
 O1998 O 0.38482 0.48464 0.91112
 C1999 C 0.39155 0.47781 0.92621
 C2000 C 0.38164 0.46212 0.93575
 C2001 C 0.36463 0.45505 0.92843
 H2002 H 0.35852 0.46142 0.91600
 O2003 O 0.59444 0.51770 0.93445
 O2004 O 0.61716 0.51761 0.91317
 C2005 C 0.60995 0.52414 0.92817
 C2006 C 0.61931 0.53989 0.93796
 C2007 C 0.63577 0.54800 0.93039
 H2008 H 0.64192 0.54235 0.91764
 O2009 O 0.43174 0.40677 0.98103
 O2010 O 0.40930 0.38538 0.98065
 C2011 C 0.42474 0.39186 0.97420
 C2012 C 0.43438 0.38244 0.95817
 C2013 C 0.42663 0.36629 0.94983
 H2014 H 0.41373 0.36031 0.95545
 O2015 O 0.56857 0.59404 0.98402
 O2016 O 0.59115 0.61530 0.98432
 C2017 C 0.57578 0.60905 0.97758
 C2018 C 0.56662 0.61883 0.96158
 C2019 C 0.57441 0.63537 0.95416
 H2020 H 0.58649 0.64168 0.96101
 O2021 O 0.43331 0.52048 0.90708
 O2022 O 0.41117 0.52099 0.88528
 C2023 C 0.42662 0.52717 0.89188
 C2024 C 0.43658 0.54270 0.88217
 C2025 C 0.42910 0.55065 0.86564
 H2026 H 0.41619 0.54505 0.85972
 O2027 O 0.56912 0.48141 0.90784
 O2028 O 0.59193 0.48126 0.88665
 C2029 C 0.57631 0.47496 0.89280
 C2030 C 0.56680 0.45948 0.88273
 C2031 C 0.57475 0.45210 0.86623
 H2032 H 0.58721 0.45860 0.86023
 O2033 O 0.51905 0.40598 0.93159
 O2034 O 0.51894 0.38456 0.90928
 C2035 C 0.52542 0.39078 0.92471
 C2036 C 0.54092 0.38066 0.93453
 C2037 C 0.54902 0.36432 0.92681
 H2038 H 0.54358 0.35877 0.91373
 O2039 O 0.48390 0.59439 0.93294
 O2040 O 0.48423 0.61638 0.91112
 C2041 C 0.47760 0.60975 0.92637
 C2042 C 0.46209 0.61973 0.93631
 C2043 C 0.45496 0.63674 0.92923
 H2044 H 0.46105 0.64269 0.91658
 O2045 O 0.40890 0.57041 0.98358
 O2046 O 0.38692 0.59243 0.98346
 C2047 C 0.39363 0.57717 0.97701
 C2048 C 0.38392 0.56768 0.96123
 C2049 C 0.36734 0.57548 0.95368
 H2050 H 0.36108 0.58771 0.96025
 O2051 O 0.59231 0.42988 0.98325
 O2052 O 0.61444 0.40801 0.98312
 C2053 C 0.60779 0.42339 0.97688
 C2054 C 0.61799 0.43359 0.96181
 C2055 C 0.63540 0.42678 0.95514
 H2056 H 0.64143 0.41420 0.96126
 O2057 O 0.48387 0.56895 0.90698
 O2058 O 0.48420 0.59087 0.88507
 C2059 C 0.47748 0.57573 0.89172
 C2060 C 0.46155 0.56634 0.88205
 C2061 C 0.45400 0.57392 0.86542
 H2062 H 0.46073 0.58596 0.85899
 O2063 O 0.51967 0.43220 0.90634
 O2064 O 0.51948 0.41084 0.88396
 C2065 C 0.52625 0.42573 0.89101
 C2066 C 0.54239 0.43531 0.88178
 C2067 C 0.55068 0.42799 0.86533
 H2068 H 0.54488 0.41547 0.85899
 O2069 O 0.59416 0.48094 0.93443
 O2070 O 0.61699 0.48089 0.91327
 C2071 C 0.60969 0.47436 0.92824
 C2072 C 0.61903 0.45853 0.93817
 C2073 C 0.63649 0.45150 0.93177
 H2074 H 0.64362 0.45831 0.92014
 O2075 O 0.40798 0.52081 0.93349
 O2076 O 0.38585 0.52144 0.91169
 C2077 C 0.39278 0.52773 0.92690
 C2078 C 0.38347 0.54368 0.93667
 C2079 C 0.36698 0.55192 0.92920
 H2080 H 0.36080 0.54630 0.91649
 O2081 O 0.43482 0.59593 0.98364
 O2082 O 0.41291 0.61800 0.98341
 C2083 C 0.42823 0.61114 0.97699
 C2084 C 0.43809 0.62051 0.96114
 C2085 C 0.43128 0.63758 0.95390
 H2086 H 0.41940 0.64446 0.96067
 O2087 O 0.56672 0.40399 0.98272
 O2088 O 0.58879 0.38206 0.98270
 C2089 C 0.57358 0.38890 0.97606
 C2090 C 0.56428 0.37970 0.95986
 C2091 C 0.57201 0.36331 0.95206
 H2092 H 0.58401 0.35666 0.95882
 O2093 O 0.56945 0.51805 0.90789
 O2094 O 0.59218 0.51786 0.88661
 C2095 C 0.57669 0.52449 0.89285
 C2096 C 0.56741 0.54037 0.88296
 C2097 C 0.57529 0.54777 0.86640
 H2098 H 0.58753 0.54101 0.86018
 O2099 O 0.43335 0.48378 0.90746
 O2100 O 0.41118 0.48431 0.88569
 C2101 C 0.42648 0.47751 0.89224
 C2102 C 0.43592 0.46168 0.88242
 C2103 C 0.42805 0.45429 0.86591
 H2104 H 0.41575 0.46098 0.85975
 O2105 O 0.52081 0.59421 0.93293
 O2106 O 0.52121 0.61617 0.91107
 C2107 C 0.52750 0.60939 0.92637
 C2108 C 0.54312 0.61891 0.93640
 C2109 C 0.55122 0.63535 0.92908
 H2110 H 0.54573 0.64131 0.91617
 O2111 O 0.48211 0.40705 0.93177
 O2112 O 0.48190 0.38561 0.90948
 C2113 C 0.47536 0.39212 0.92481
 C2114 C 0.45925 0.38264 0.93418
 C2115 C 0.45142 0.36645 0.92623
 H2116 H 0.45801 0.36027 0.91394
 O2117 O 0.59348 0.56738 0.98424
 O2118 O 0.61605 0.58866 0.98458
 C2119 C 0.60906 0.57366 0.97798
 C2120 C 0.61883 0.56396 0.96237
 C2121 C 0.63538 0.57165 0.95475
 H2122 H 0.64161 0.58392 0.96118
 O2123 O 0.40657 0.43330 0.98154
 O2124 O 0.38405 0.41199 0.98137
 C2125 C 0.39105 0.42715 0.97508
 C2126 C 0.38139 0.43739 0.95963
 C2127 C 0.36430 0.43068 0.95222
 H2128 H 0.35761 0.41859 0.95858
 Cu2129 Cu 0.50093 0.42173 0.92123
 Cu2130 Cu 0.50061 0.39606 0.89444
 Cu2131 Cu 0.50234 0.57931 0.92218
 Cu2132 Cu 0.50275 0.60565 0.89593
 Cu2133 Cu 0.42260 0.50222 0.92242
 Cu2134 Cu 0.39603 0.50288 0.89629
 Cu2135 Cu 0.57952 0.49953 0.92330
 Cu2136 Cu 0.60687 0.49936 0.89782
 C2137 C 0.45202 0.45299 0.89018
 H2138 H 0.45800 0.45842 0.90307
 C2139 C 0.43566 0.43815 0.85743
 C2140 C 0.55139 0.54907 0.89079
 H2141 H 0.54540 0.54358 0.90369
 C2142 C 0.56770 0.56398 0.85794
 C2143 C 0.38983 0.45325 0.95143
 H2144 H 0.40314 0.45836 0.95691
 C2145 C 0.35584 0.43931 0.93653
 C2146 C 0.61098 0.54794 0.95402
 H2147 H 0.59802 0.54210 0.95966
 C2148 C 0.64375 0.56401 0.93859
 C2149 C 0.45076 0.39042 0.95026
 H2150 H 0.45660 0.40307 0.95629
 C2151 C 0.43500 0.35829 0.93374
 C2152 C 0.55085 0.61086 0.95272
 H2153 H 0.54494 0.59796 0.95820
 C2154 C 0.56693 0.64368 0.93781
 C2155 C 0.45287 0.55059 0.89017
 H2156 H 0.45845 0.54484 0.90315
 C2157 C 0.43763 0.56635 0.85721
 C2158 C 0.55051 0.45114 0.89026
 H2159 H 0.54448 0.45664 0.90314
 C2160 C 0.56697 0.43624 0.85752
 C2161 C 0.54860 0.38812 0.95113
 H2162 H 0.54276 0.40093 0.95693
 C2163 C 0.56469 0.35562 0.93541
 C2164 C 0.45365 0.61181 0.95236
 H2165 H 0.45884 0.59853 0.95771
 C2166 C 0.43957 0.64579 0.93791
 C2167 C 0.39179 0.55165 0.95275
 H2168 H 0.40474 0.54571 0.95834
 C2169 C 0.35891 0.56793 0.93754
 C2170 C 0.60997 0.44958 0.95335
 H2171 H 0.59638 0.45472 0.95820
 C2172 C 0.64474 0.43559 0.94013
 O2173 O 0.51793 0.43034 1.09519
 O2174 O 0.51730 0.40846 1.11712
 C2175 C 0.52430 0.42344 1.11042
 C2176 C 0.54042 0.43267 1.11997
 C2177 C 0.54852 0.42488 1.13631
 H2178 H 0.54264 0.41218 1.14224
 O2179 O 0.48204 0.56807 1.09562
 O2180 O 0.48231 0.58929 1.11814
 C2181 C 0.47556 0.57443 1.11102
 C2182 C 0.45957 0.56475 1.12034
 C2183 C 0.45150 0.57211 1.13683
 H2184 H 0.45735 0.58470 1.14297
 O2185 O 0.40709 0.51941 1.06824
 O2186 O 0.38468 0.51937 1.08985
 C2187 C 0.39175 0.52603 1.07483
 C2188 C 0.38245 0.54222 1.06552
 C2189 C 0.36593 0.55000 1.07326
 H2190 H 0.35931 0.54327 1.08524
 O2191 O 0.59348 0.47912 1.06880
 O2192 O 0.61570 0.47886 1.09053
 C2193 C 0.60886 0.47253 1.07531
 C2194 C 0.61850 0.45691 1.06542
 C2195 C 0.63591 0.44988 1.07194
 H2196 H 0.64285 0.45660 1.08369
 O2197 O 0.56663 0.40352 1.01964
 O2198 O 0.58874 0.38164 1.01969
 C2199 C 0.57342 0.38836 1.02624
 C2200 C 0.56373 0.37899 1.04218
 C2201 C 0.57138 0.36274 1.05054
 H2202 H 0.58419 0.35656 1.04488
 O2203 O 0.43418 0.59636 1.02048
 O2204 O 0.41229 0.61846 1.02028
 C2205 C 0.42750 0.61163 1.02691
 C2206 C 0.43720 0.62106 1.04276
 C2207 C 0.43051 0.63820 1.04999
 H2208 H 0.41877 0.64522 1.04316
 O2209 O 0.43203 0.48210 1.09425
 O2210 O 0.40962 0.48225 1.11586
 C2211 C 0.42502 0.47565 1.10939
 C2212 C 0.43457 0.45998 1.11928
 C2213 C 0.42726 0.45298 1.13628
 H2214 H 0.41471 0.45934 1.14229
 O2215 O 0.56754 0.51575 1.09466
 O2216 O 0.58973 0.51542 1.11643
 C2217 C 0.57440 0.52208 1.10986
 C2218 C 0.56498 0.53788 1.11962
 C2219 C 0.57280 0.54510 1.13620
 H2220 H 0.58494 0.53824 1.14248
 O2221 O 0.48054 0.40599 1.06896
 O2222 O 0.47977 0.38404 1.09082
 C2223 C 0.47368 0.39085 1.07543
 C2224 C 0.45818 0.38135 1.06517
 C2225 C 0.45086 0.36426 1.07175
 H2226 H 0.45721 0.35757 1.08389
 O2227 O 0.51922 0.59388 1.07061
 O2228 O 0.51958 0.61524 1.09299
 C2229 C 0.52585 0.60890 1.07751
 C2230 C 0.54137 0.61870 1.06760
 C2231 C 0.54836 0.63587 1.07426
 H2232 H 0.54168 0.64249 1.08626
 O2233 O 0.40642 0.43252 1.01829
 O2234 O 0.38401 0.41109 1.01821
 C2235 C 0.39102 0.42607 1.02486
 C2236 C 0.38157 0.43578 1.04080
 C2237 C 0.36514 0.42825 1.04908
 H2238 H 0.35906 0.41550 1.04351
 O2239 O 0.59330 0.56722 1.02086
 O2240 O 0.61588 0.58848 1.02115
 C2241 C 0.60882 0.57333 1.02738
 C2242 C 0.61852 0.56301 1.04270
 C2243 C 0.63574 0.56963 1.04990
 H2244 H 0.64236 0.58176 1.04355
 O2245 O 0.51900 0.56717 1.09528
 O2246 O 0.51943 0.58842 1.11776
 C2247 C 0.52571 0.57329 1.11064
 C2248 C 0.54137 0.56303 1.11995
 C2249 C 0.54959 0.57015 1.13643
 H2250 H 0.54415 0.58299 1.14254
 O2251 O 0.48095 0.43167 1.09478
 O2252 O 0.48025 0.40981 1.11673
 C2253 C 0.47421 0.42522 1.11002
 C2254 C 0.45872 0.43543 1.11966
 C2255 C 0.45142 0.42881 1.13680
 H2256 H 0.45799 0.41684 1.14356
 O2257 O 0.59361 0.51588 1.06913
 O2258 O 0.61580 0.51552 1.09089
 C2259 C 0.60897 0.52225 1.07580
 C2260 C 0.61866 0.53805 1.06629
 C2261 C 0.63579 0.54503 1.07342
 H2262 H 0.64211 0.53852 1.08566
 O2263 O 0.40688 0.48257 1.06777
 O2264 O 0.38452 0.48269 1.08943
 C2265 C 0.39145 0.47617 1.07428
 C2266 C 0.38180 0.46042 1.06471
 C2267 C 0.36531 0.45280 1.07257
 H2268 H 0.35902 0.45933 1.08483
 O2269 O 0.56823 0.59386 1.02087
 O2270 O 0.59078 0.61514 1.02111
 C2271 C 0.57525 0.60885 1.02745
 C2272 C 0.56553 0.61868 1.04304
 C2273 C 0.57246 0.63576 1.04996
 H2274 H 0.58483 0.64200 1.04352
 O2275 O 0.43200 0.40653 1.01795
 O2276 O 0.40967 0.38502 1.01765
 C2277 C 0.42503 0.39140 1.02432
 C2278 C 0.43452 0.38153 1.04010
 C2279 C 0.42731 0.36451 1.04700
 H2280 H 0.41502 0.35835 1.04040
 O2281 O 0.56777 0.47909 1.09487
 O2282 O 0.58999 0.47882 1.11660
 C2283 C 0.57457 0.47250 1.11005
 C2284 C 0.56488 0.45683 1.11977
 C2285 C 0.57256 0.44906 1.13624
 H2286 H 0.58488 0.45548 1.14252
 O2287 O 0.43248 0.51875 1.09450
 O2288 O 0.41001 0.51876 1.11605
 C2289 C 0.42553 0.52511 1.10971
 C2290 C 0.43518 0.54057 1.11973
 C2291 C 0.42745 0.54799 1.13636
 H2292 H 0.41505 0.54153 1.14251
 O2293 O 0.48247 0.59431 1.07052
 O2294 O 0.48274 0.61564 1.09293
 C2295 C 0.47623 0.60952 1.07747
 C2296 C 0.46096 0.61987 1.06765
 C2297 C 0.45402 0.63690 1.07478
 H2298 H 0.46011 0.64261 1.08749
 O2299 O 0.51738 0.40513 1.06916
 O2300 O 0.51666 0.38321 1.09107
 C2301 C 0.52346 0.38974 1.07587
 C2302 C 0.53916 0.37976 1.06637
 C2303 C 0.54681 0.36344 1.07436
 H2304 H 0.54028 0.35746 1.08677
 O2305 O 0.59241 0.42922 1.01981
 O2306 O 0.61457 0.40736 1.01964
 C2307 C 0.60786 0.42258 1.02613
 C2308 C 0.61790 0.43242 1.04146
 C2309 C 0.63524 0.42553 1.04823
 H2310 H 0.64139 0.41308 1.04198
 O2311 O 0.40841 0.57059 1.02030
 O2312 O 0.38645 0.59263 1.02025
 C2313 C 0.39303 0.57732 1.02672
 C2314 C 0.38310 0.56748 1.04224
 C2315 C 0.36664 0.57517 1.05036
 H2316 H 0.36089 0.58821 1.04496
 Cu2317 Cu 0.49924 0.42051 1.07987
 Cu2318 Cu 0.49836 0.39419 1.10614
 Cu2319 Cu 0.50065 0.57871 1.08078
 Cu2320 Cu 0.50106 0.60424 1.10778
 Cu2321 Cu 0.42144 0.42188 0.99970
 Cu2322 Cu 0.39453 0.39622 0.99943
 Cu2323 Cu 0.57722 0.41877 1.00139
 Cu2324 Cu 0.60380 0.39252 1.00124
 Cu2325 Cu 0.42381 0.58116 1.00208
 Cu2326 Cu 0.39744 0.60758 1.00181
 Cu2327 Cu 0.57856 0.57855 1.00251
 Cu2328 Cu 0.60573 0.60404 1.00284
 Cu2329 Cu 0.42187 0.50070 1.07901
 Cu2330 Cu 0.39492 0.50076 1.10490
 Cu2331 Cu 0.57839 0.49745 1.07965
 Cu2332 Cu 0.60502 0.49712 1.10580
 C2333 C 0.54868 0.44869 1.11191
 H2334 H 0.54283 0.45451 1.09909
 C2335 C 0.56471 0.43292 1.14451
 C2336 C 0.45137 0.54892 1.11197
 H2337 H 0.45724 0.54345 1.09900
 C2338 C 0.43537 0.56389 1.14492
 C2339 C 0.39082 0.55094 1.04989
 H2340 H 0.40372 0.54514 1.04402
 C2341 C 0.35806 0.56660 1.06602
 C2342 C 0.60973 0.44821 1.05004
 H2343 H 0.59620 0.45339 1.04509
 C2344 C 0.64439 0.43415 1.06345
 C2345 C 0.54754 0.38728 1.05016
 H2346 H 0.54182 0.40004 1.04411
 C2347 C 0.56306 0.35496 1.06676
 C2348 C 0.45258 0.61219 1.05156
 H2349 H 0.45767 0.59888 1.04621
 C2350 C 0.43883 0.64627 1.06604
 C2351 C 0.45038 0.45118 1.11116
 H2352 H 0.45582 0.45625 1.09785
 C2353 C 0.43559 0.43740 1.14519
 C2354 C 0.54912 0.54681 1.11169
 H2355 H 0.54318 0.54148 1.09873
 C2356 C 0.56540 0.56136 1.14456
 C2357 C 0.45005 0.38975 1.04921
 H2358 H 0.45546 0.40304 1.04419
 C2359 C 0.43538 0.35574 1.06282
 C2360 C 0.54989 0.61038 1.05185
 H2361 H 0.54471 0.59704 1.04678
 C2362 C 0.56393 0.64453 1.06553
 C2363 C 0.38974 0.45193 1.04871
 H2364 H 0.40264 0.45757 1.04275
 C2365 C 0.35704 0.43657 1.06512
 C2366 C 0.61019 0.54708 1.05085
 H2367 H 0.59680 0.54203 1.04551
 C2368 C 0.64442 0.56084 1.06535
 C2369 C 1.10360 1.12730 1.26538
 C2370 C 1.09458 1.11925 1.24997
 C2371 C 1.10489 1.10885 1.23684
 C2372 C 1.12445 1.10624 1.23947
 C2373 C 1.13351 1.11416 1.25504
 C2374 C 1.12318 1.12494 1.26805
 N2375 N 1.09513 1.10130 1.22096
 N2376 N 1.10372 1.09320 1.20750
 C2377 C 1.09378 1.08574 1.19166
 C2378 C 1.10420 1.07824 1.17674
 C2379 C 1.09499 1.07087 1.16106
 C2380 C 1.07510 1.07070 1.16011
 C2381 C 1.06465 1.07836 1.17509
 C2382 C 1.07390 1.08584 1.19074
 H2383 H 1.09517 1.13529 1.27526
 H2384 H 1.07950 1.12129 1.24813
 H2385 H 1.13270 1.09818 1.22950
 H2386 H 1.14861 1.11218 1.25667
 H2387 H 1.11952 1.07820 1.17723
 H2388 H 1.10348 1.06544 1.14960
 H2389 H 1.04933 1.07829 1.17485
 H2390 H 1.06552 1.09155 1.20214
 C2391 C 1.14291 0.61294 0.75218
 C2392 C 1.13566 0.60380 0.73642
 C2393 C 1.11645 0.60521 0.73200
 C2394 C 1.10449 0.61614 0.74340
 C2395 C 1.11175 0.62546 0.75908
 C2396 C 1.13102 0.62385 0.76369
 N2397 N 1.10953 0.59557 0.71580
 N2398 N 1.09197 0.59468 0.71200
 C2399 C 1.08515 0.58536 0.69556
 C2400 C 1.06563 0.58403 0.69275
 C2401 C 1.05852 0.57568 0.67649
 C2402 C 1.07088 0.56861 0.66266
 C2403 C 1.09050 0.56971 0.66569
 C2404 C 1.09759 0.57798 0.68200
 H2405 H 1.15785 0.61160 0.75520
 H2406 H 1.14503 0.59550 0.72767
 H2407 H 1.08958 0.61752 0.74019
 H2408 H 1.10222 0.63366 0.76772
 H2409 H 1.05592 0.58961 0.70313
 H2410 H 1.04333 0.57481 0.67469
 H2411 H 1.10040 0.56467 0.65520
 H2412 H 1.11276 0.57890 0.68384
 C2413 C 0.63986 1.11144 0.75436
 C2414 C 0.63229 1.10267 0.73853
 C2415 C 0.61405 1.10703 0.73240
 C2416 C 0.60343 1.12056 0.74213
 C2417 C 0.61104 1.12957 0.75783
 C2418 C 0.62937 1.12508 0.76431
 N2419 N 0.60676 1.09770 0.71615
 N2420 N 0.58945 1.09888 0.71138
 C2421 C 0.58235 1.08985 0.69488
 C2422 C 0.56282 1.08949 0.69177
 C2423 C 0.55548 1.08107 0.67563
 C2424 C 0.56763 1.07305 0.66214
 C2425 C 0.58727 1.07341 0.66536
 C2426 C 0.59456 1.08165 0.68160
 H2427 H 0.65404 1.10755 0.75851
 H2428 H 0.64065 1.09232 0.73107
 H2429 H 0.58930 1.12426 0.73754
 H2430 H 0.60232 1.13986 0.76490
 H2431 H 0.55327 1.09573 0.70193
 H2432 H 0.54029 1.08080 0.67376
 H2433 H 0.59706 1.06771 0.65512
 H2434 H 0.60974 1.08188 0.68362
 C2435 C 0.60265 0.63068 1.26414
 C2436 C 0.59361 0.62249 1.24879
 C2437 C 0.60371 0.61102 1.23640
 C2438 C 0.62305 0.60764 1.23960
 C2439 C 0.63208 0.61569 1.25506
 C2440 C 0.62198 0.62735 1.26744
 N2441 N 0.59402 0.60299 1.22075
 N2442 N 0.60273 0.59391 1.20800
 C2443 C 0.59305 0.58578 1.19239
 C2444 C 0.60370 0.57787 1.17785
 C2445 C 0.59473 0.56998 1.16231
 C2446 C 0.57486 0.56967 1.16117
 C2447 C 0.56418 0.57756 1.17587
 C2448 C 0.57319 0.58560 1.19135
 H2449 H 0.59440 0.63942 1.27352
 H2450 H 0.57869 0.62515 1.24648
 H2451 H 0.63115 0.59878 1.23020
 H2452 H 0.64701 0.61298 1.25714
 H2453 H 0.61901 0.57801 1.17849
 H2454 H 0.60338 0.56438 1.15105
 H2455 H 0.54886 0.57736 1.17550
 H2456 H 0.56466 0.59157 1.20250
 C2457 C 0.88797 0.85831 1.25451
 C2458 C 0.89682 0.86573 1.23863
 C2459 C 0.89254 0.88383 1.23248
 C2460 C 0.87888 0.89442 1.24216
 C2461 C 0.86971 0.88691 1.25790
 C2462 C 0.87428 0.86878 1.26449
 N2463 N 0.90215 0.89097 1.21627
 N2464 N 0.90152 0.90819 1.21161
 C2465 C 0.91095 0.91496 1.19512
 C2466 C 0.91208 0.93429 1.19206
 C2467 C 0.92084 0.94130 1.17589
 C2468 C 0.92840 0.92901 1.16232
 C2469 C 0.92734 0.90958 1.16553
 C2470 C 0.91878 0.90262 1.18181
 H2471 H 0.89183 0.84423 1.25867
 H2472 H 0.90723 0.85739 1.23116
 H2473 H 0.87524 0.90844 1.23752
 H2474 H 0.85937 0.89556 1.26503
 H2475 H 0.90617 0.94395 1.20225
 H2476 H 0.92167 0.95634 1.17400
 H2477 H 0.93268 0.89972 1.15525
 H2478 H 0.91798 0.88759 1.18381
 C2479 C 0.85888 0.38886 0.75531
 C2480 C 0.86638 0.39786 0.73954
 C2481 C 0.88471 0.39381 0.73342
 C2482 C 0.89549 0.38033 0.74307
 C2483 C 0.88795 0.37108 0.75871
 C2484 C 0.86954 0.37530 0.76520
 N2485 N 0.89194 0.40340 0.71728
 N2486 N 0.90930 0.40255 0.71259
 C2487 C 0.91633 0.41181 0.69616
 C2488 C 0.93585 0.41232 0.69301
 C2489 C 0.94312 0.42082 0.67684
 C2490 C 0.93090 0.42877 0.66339
 C2491 C 0.91127 0.42835 0.66670
 C2492 C 0.90405 0.42002 0.68297
 H2493 H 0.84463 0.39251 0.75946
 H2494 H 0.85791 0.40815 0.73211
 H2495 H 0.90968 0.37686 0.73847
 H2496 H 0.89678 0.36085 0.76573
 H2497 H 0.94545 0.40608 0.70312
 H2498 H 0.95831 0.42115 0.67486
 H2499 H 0.90144 0.43402 0.65649
 H2500 H 0.88888 0.41969 0.68504
 C2501 C 0.38810 0.85823 0.75448
 C2502 C 0.39661 0.86579 0.73843
 C2503 C 0.39390 0.88466 0.73373
 C2504 C 0.38244 0.89597 0.74526
 C2505 C 0.37376 0.88838 0.76121
 C2506 C 0.37651 0.86943 0.76600
 N2507 N 0.40268 0.89191 0.71709
 N2508 N 0.40237 0.90929 0.71300
 C2509 C 0.41079 0.91643 0.69613
 C2510 C 0.41175 0.93584 0.69345
 C2511 C 0.41962 0.94325 0.67700
 C2512 C 0.42654 0.93130 0.66283
 C2513 C 0.42552 0.91178 0.66559
 C2514 C 0.41779 0.90441 0.68211
 H2515 H 0.39035 0.84355 0.75767
 H2516 H 0.40535 0.85692 0.72960
 H2517 H 0.38009 0.91060 0.74189
 H2518 H 0.36506 0.89743 0.76987
 H2519 H 0.40641 0.94525 0.70417
 H2520 H 0.42042 0.95833 0.67544
 H2521 H 0.43036 0.90216 0.65484
 H2522 H 0.41706 0.88934 0.68379
 C2523 C 0.39046 0.35828 1.25640
 C2524 C 0.39927 0.36579 1.24048
 C2525 C 0.39409 0.38347 1.23372
 C2526 C 0.37973 0.39356 1.24290
 C2527 C 0.37066 0.38597 1.25862
 C2528 C 0.37593 0.36822 1.26573
 N2529 N 0.40340 0.39074 1.21738
 N2530 N 0.40177 0.40782 1.21239
 C2531 C 0.41067 0.41493 1.19576
 C2532 C 0.41118 0.43430 1.19277
 C2533 C 0.41954 0.44165 1.17654
 C2534 C 0.42729 0.42967 1.16281
 C2535 C 0.42668 0.41017 1.16588
 C2536 C 0.41856 0.40288 1.18224
 H2537 H 0.39495 0.34454 1.26106
 H2538 H 0.41026 0.35784 1.23344
 H2539 H 0.37541 0.40723 1.23783
 H2540 H 0.35971 0.39428 1.26524
 H2541 H 0.40516 0.44373 1.20311
 H2542 H 0.42001 0.45673 1.17480
 H2543 H 0.43213 0.40049 1.15547
 H2544 H 0.41816 0.38782 1.18416
 C2545 C 0.85757 1.11273 0.74515
 C2546 C 0.86491 1.10386 0.76112
 C2547 C 0.88391 1.10616 0.76607
 C2548 C 0.89556 1.11756 0.75486
 C2549 C 0.88821 1.12658 0.73900
 C2550 C 0.86913 1.12425 0.73395
 N2551 N 0.89093 1.09704 0.78263
 N2552 N 0.90841 1.09711 0.78691
 C2553 C 0.91545 1.08837 0.80367
 C2554 C 0.93500 1.08755 0.80660
 C2555 C 0.94233 1.07954 0.82300
 C2556 C 0.93017 1.07233 0.83692
 C2557 C 0.91051 1.07310 0.83387
 C2558 C 0.90321 1.08099 0.81738
 H2559 H 0.84279 1.11076 0.74177
 H2560 H 0.85577 1.09516 0.76968
 H2561 H 0.91030 1.11960 0.75842
 H2562 H 0.89754 1.13521 0.73060
 H2563 H 0.94457 1.09315 0.79612
 H2564 H 0.95754 1.07892 0.82476
 H2565 H 0.90073 1.06798 0.84440
 H2566 H 0.88802 1.08157 0.81550
 C2567 C 0.86684 0.60281 0.23563
 C2568 C 0.87449 0.59361 0.25126
 C2569 C 0.88593 0.60330 0.26397
 C2570 C 0.88972 0.62239 0.26084
 C2571 C 0.88222 0.63156 0.24515
 C2572 C 0.87070 0.62188 0.23236
 N2573 N 0.89361 0.59350 0.27983
 N2574 N 0.90267 0.60202 0.29267
 C2575 C 0.91068 0.59251 0.30852
 C2576 C 0.91866 0.60319 0.32290
 C2577 C 0.92665 0.59448 0.33859
 C2578 C 0.92703 0.57480 0.34008
 C2579 C 0.91900 0.56407 0.32556
 C2580 C 0.91085 0.57285 0.30992
 H2581 H 0.85815 0.59490 0.22598
 H2582 H 0.87149 0.57889 0.25349
 H2583 H 0.89854 0.63020 0.27046
 H2584 H 0.88531 0.64628 0.24317
 H2585 H 0.91854 0.61835 0.32200
 H2586 H 0.93231 0.60319 0.34968
 H2587 H 0.91922 0.54891 0.32619
 H2588 H 0.90484 0.56430 0.29889
 C2589 C 0.36625 1.10286 0.23462
 C2590 C 0.37413 1.09346 0.25002
 C2591 C 0.38541 1.10307 0.26292
 C2592 C 0.38880 1.12230 0.26023
 C2593 C 0.38107 1.13169 0.24476
 C2594 C 0.36972 1.12207 0.23177
 N2595 N 0.39339 1.09304 0.27850
 N2596 N 0.40234 1.10140 0.29152
 C2597 C 0.41066 1.09165 0.30707
 C2598 C 0.41847 1.10212 0.32170
 C2599 C 0.42681 1.09317 0.33708
 C2600 C 0.42771 1.07347 0.33801
 C2601 C 0.41983 1.06296 0.32325
 C2602 C 0.41133 1.07197 0.30792
 H2603 H 0.35771 1.09499 0.22482
 H2604 H 0.37143 1.07864 0.25191
 H2605 H 0.39750 1.13006 0.27000
 H2606 H 0.38388 1.14650 0.24311
 H2607 H 0.41796 1.11729 0.32123
 H2608 H 0.43232 1.10171 0.34838
 H2609 H 0.42043 1.04779 0.32345
 H2610 H 0.40545 1.06358 0.29670
 C2611 C 0.36706 0.60361 0.73680
 C2612 C 0.37490 0.59440 0.75236
 C2613 C 0.38676 0.60399 0.76476
 C2614 C 0.39078 0.62299 0.76139
 C2615 C 0.38311 0.63216 0.74577
 C2616 C 0.37116 0.62258 0.73328
 N2617 N 0.39463 0.59419 0.78056
 N2618 N 0.40404 0.60265 0.79319
 C2619 C 0.41224 0.59316 0.80898
 C2620 C 0.42049 0.60385 0.82321
 C2621 C 0.42865 0.59517 0.83885
 C2622 C 0.42894 0.57550 0.84046
 C2623 C 0.42065 0.56476 0.82608
 C2624 C 0.41233 0.57351 0.81049
 H2625 H 0.35804 0.59577 0.72740
 H2626 H 0.37170 0.57975 0.75477
 H2627 H 0.39992 0.63074 0.77077
 H2628 H 0.38640 0.64682 0.74361
 H2629 H 0.42044 0.61901 0.82224
 H2630 H 0.43449 0.60391 0.84981
 H2631 H 0.42079 0.54959 0.82677
 H2632 H 0.40612 0.56493 0.79959
 C2633 C 1.11826 0.85933 0.74757
 C2634 C 1.10975 0.86685 0.76360
 C2635 C 1.11070 0.88606 0.76722
 C2636 C 1.12065 0.89777 0.75475
 C2637 C 1.12935 0.89022 0.73873
 C2638 C 1.12804 0.87093 0.73488
 N2639 N 1.10138 0.89318 0.78362
 N2640 N 1.10002 0.91062 0.78717
 C2641 C 1.09065 0.91729 0.80376
 C2642 C 1.08870 0.93662 0.80652
 C2643 C 1.07989 0.94353 0.82272
 C2644 C 1.07295 0.93117 0.83653
 C2645 C 1.07478 0.91175 0.83362
 C2646 C 1.08351 0.90487 0.81739
 H2647 H 1.11721 0.84438 0.74521
 H2648 H 1.10223 0.85769 0.77317
 H2649 H 1.12164 0.91269 0.75733
 H2650 H 1.13672 0.89951 0.72919
 H2651 H 1.09406 0.94634 0.79610
 H2652 H 1.07849 0.95855 0.82443
 H2653 H 1.06987 0.90187 0.84411
 H2654 H 1.08489 0.88985 0.81563
 C2655 C 1.10335 0.36894 0.23412
 C2656 C 1.09408 0.37662 0.24969
 C2657 C 1.10403 0.38735 0.26279
 C2658 C 1.12345 0.39058 0.25996
 C2659 C 1.13273 0.38304 0.24425
 C2660 C 1.12280 0.37201 0.23124
 N2661 N 1.09408 0.39473 0.27875
 N2662 N 1.10258 0.40290 0.29219
 C2663 C 1.09273 0.41043 0.30815
 C2664 C 1.10329 0.41773 0.32301
 C2665 C 1.09426 0.42541 0.33871
 C2666 C 1.07437 0.42614 0.33978
 C2667 C 1.06376 0.41860 0.32489
 C2668 C 1.07285 0.41079 0.30920
 H2669 H 1.09521 0.36071 0.22428
 H2670 H 1.07911 0.37408 0.25165
 H2671 H 1.13146 0.39889 0.26986
 H2672 H 1.14772 0.38559 0.24250
 H2673 H 1.11860 0.41743 0.32243
 H2674 H 1.10290 0.43068 0.35008
 H2675 H 1.04845 0.41906 0.32520
 H2676 H 1.06437 0.40525 0.29785
 C2677 C 0.64377 0.88855 0.24536
 C2678 C 0.63664 0.89739 0.26143
 C2679 C 0.61775 0.89496 0.26677
 C2680 C 0.60599 0.88345 0.25587
 C2681 C 0.61314 0.87445 0.23992
 C2682 C 0.63210 0.87692 0.23446
 N2683 N 0.61093 0.90405 0.28343
 N2684 N 0.59350 0.90393 0.28797
 C2685 C 0.58664 0.91258 0.30483
 C2686 C 0.56712 0.91343 0.30797
 C2687 C 0.55994 0.92134 0.32448
 C2688 C 0.57223 0.92841 0.33829
 C2689 C 0.59187 0.92760 0.33503
 C2690 C 0.59901 0.91981 0.31843
 H2691 H 0.65847 0.89061 0.24165
 H2692 H 0.64587 0.90616 0.26976
 H2693 H 0.59134 0.88130 0.25974
 H2694 H 0.60373 0.86572 0.23176
 H2695 H 0.55744 0.90794 0.29757
 H2696 H 0.54475 0.92200 0.32640
 H2697 H 0.60175 0.93261 0.34548
 H2698 H 0.61418 0.91919 0.31637
 C2699 C 0.60383 0.37279 0.73405
 C2700 C 0.59490 0.38070 0.74967
 C2701 C 0.60533 0.39069 0.76295
 C2702 C 0.62491 0.39303 0.76025
 C2703 C 0.63386 0.38525 0.74448
 C2704 C 0.62342 0.37486 0.73133
 N2705 N 0.59569 0.39811 0.77905
 N2706 N 0.60444 0.40569 0.79267
 C2707 C 0.59469 0.41306 0.80874
 C2708 C 0.60530 0.41983 0.82382
 C2709 C 0.59630 0.42713 0.83971
 C2710 C 0.57642 0.42797 0.84075
 C2711 C 0.56577 0.42104 0.82560
 C2712 C 0.57481 0.41363 0.80973
 H2713 H 0.59531 0.36511 0.72407
 H2714 H 0.57981 0.37887 0.75155
 H2715 H 0.63327 0.40077 0.77032
 H2716 H 0.64898 0.38702 0.74281
 H2717 H 0.62061 0.41936 0.82328
 H2718 H 0.60494 0.43197 0.85128
 H2719 H 0.55046 0.42163 0.82589
 H2720 H 0.56629 0.40850 0.79821
 C2721 C 1.25304 1.14173 1.11169
 C2722 C 1.23683 1.13440 1.10322
 C2723 C 1.23225 1.11545 1.10538
 C2724 C 1.24403 1.10385 1.11628
 C2725 C 1.26015 1.11119 1.12490
 C2726 C 1.26486 1.13020 1.12267
 N2727 N 1.21551 1.10842 1.09657
 N2728 N 1.21148 1.09104 1.09646
 C2729 C 1.19457 1.08405 1.08794
 C2730 C 1.19192 1.06466 1.08673
 C2731 C 1.17546 1.05738 1.07871
 C2732 C 1.16123 1.06944 1.07190
 C2733 C 1.16396 1.08894 1.07315
 C2734 C 1.18050 1.09618 1.08103
 H2735 H 1.25614 1.15646 1.10983
 H2736 H 1.22783 1.14350 1.09492
 H2737 H 1.24076 1.08915 1.11821
 H2738 H 1.26901 1.10189 1.13313
 H2739 H 1.20268 1.05517 1.09198
 H2740 H 1.17393 1.04232 1.07774
 H2741 H 1.15316 1.09863 1.06837
 H2742 H 1.18216 1.11124 1.08193
 C2743 C 1.25423 0.64206 0.61285
 C2744 C 1.23823 0.63460 0.60410
 C2745 C 1.23353 0.61571 0.60653
 C2746 C 1.24497 0.60431 0.61799
 C2747 C 1.26087 0.61179 0.62690
 C2748 C 1.26571 0.63075 0.62439
 N2749 N 1.21702 0.60854 0.59738
 N2750 N 1.21296 0.59117 0.59748
 C2751 C 1.19627 0.58404 0.58861
 C2752 C 1.19360 0.56464 0.58778
 C2753 C 1.17733 0.55721 0.57952
 C2754 C 1.16330 0.56913 0.57206
 C2755 C 1.16609 0.58865 0.57288
 C2756 C 1.18244 0.59604 0.58102
 H2757 H 1.25742 0.65674 0.61075
 H2758 H 1.22949 0.64355 0.59536
 H2759 H 1.24159 0.58967 0.62014
 H2760 H 1.26948 0.60265 0.63555
 H2761 H 1.20418 0.55524 0.59354
 H2762 H 1.17577 0.54213 0.57889
 H2763 H 1.15545 0.59825 0.56759
 H2764 H 1.18412 0.61111 0.58161
 C2765 C 0.75392 1.14237 0.61180
 C2766 C 0.73786 1.13499 0.60310
 C2767 C 0.73279 1.11626 0.60592
 C2768 C 0.74394 1.10491 0.61772
 C2769 C 0.75991 1.11231 0.62659
 C2770 C 0.76509 1.13112 0.62369
 N2771 N 0.71619 1.10922 0.59686
 N2772 N 0.71174 1.09194 0.59734
 C2773 C 0.69493 1.08500 0.58857
 C2774 C 0.69179 1.06565 0.58820
 C2775 C 0.67535 1.05842 0.58010
 C2776 C 0.66162 1.07049 0.57234
 C2777 C 0.66488 1.08994 0.57267
 C2778 C 0.68140 1.09713 0.58065
 H2779 H 0.75739 1.15694 0.60941
 H2780 H 0.72934 1.14390 0.59410
 H2781 H 0.74028 1.09038 0.62016
 H2782 H 0.76829 1.10323 0.63553
 H2783 H 0.70212 1.05615 0.59422
 H2784 H 0.67343 1.04337 0.57984
 H2785 H 0.65448 1.09965 0.56713
 H2786 H 0.68345 1.11217 0.58087
 C2787 C 0.75323 0.64174 1.11317
 C2788 C 0.73709 0.63426 1.10472
 C2789 C 0.73271 0.61526 1.10686
 C2790 C 0.74464 0.60375 1.11770
 C2791 C 0.76068 0.61124 1.12629
 C2792 C 0.76518 0.63032 1.12410
 N2793 N 0.71602 0.60806 1.09810
 N2794 N 0.71217 0.59064 1.09801
 C2795 C 0.69530 0.58350 1.08954
 C2796 C 0.69284 0.56409 1.08826
 C2797 C 0.67644 0.55669 1.08025
 C2798 C 0.66209 0.56864 1.07350
 C2799 C 0.66461 0.58815 1.07487
 C2800 C 0.68108 0.59553 1.08274
 H2801 H 0.75618 0.65651 1.11132
 H2802 H 0.72796 0.64328 1.09645
 H2803 H 0.74152 0.58902 1.11960
 H2804 H 0.76966 0.60201 1.13447
 H2805 H 0.70371 0.55469 1.09344
 H2806 H 0.67506 0.54161 1.07920
 H2807 H 0.65371 0.59776 1.07016
 H2808 H 0.68258 0.61059 1.08371
 C2809 C 1.25475 0.88787 0.85791
 C2810 C 1.23876 0.89690 0.86517
 C2811 C 1.23380 0.89471 0.88408
 C2812 C 1.24498 0.88325 0.89574
 C2813 C 1.26086 0.87407 0.88846
 C2814 C 1.26593 0.87630 0.86947
 N2815 N 1.21722 0.90400 0.89103
 N2816 N 1.21294 0.90403 0.90841
 C2817 C 1.19612 0.91290 0.91532
 C2818 C 1.19309 0.91371 0.93474
 C2819 C 1.17656 0.92176 0.94194
 C2820 C 1.16266 0.92901 0.92977
 C2821 C 1.16584 0.92831 0.91025
 C2822 C 1.18245 0.92037 0.90308
 H2823 H 1.25815 0.88974 0.84318
 H2824 H 1.23020 0.90563 0.85604
 H2825 H 1.24138 0.88130 0.91041
 H2826 H 1.26926 0.86540 0.89777
 H2827 H 1.20356 0.90803 0.94430
 H2828 H 1.17466 0.92232 0.95704
 H2829 H 1.15530 0.93347 0.90048
 H2830 H 1.18443 0.91980 0.88800
 C2831 C 1.25765 0.39069 0.35822
 C2832 C 1.24168 0.39980 0.36540
 C2833 C 1.23465 0.39516 0.38317
 C2834 C 1.24361 0.38103 0.39366
 C2835 C 1.25940 0.37166 0.38641
 C2836 C 1.26678 0.37639 0.36858
 N2837 N 1.21826 0.40476 0.39012
 N2838 N 1.21322 0.40363 0.40726
 C2839 C 1.19655 0.41273 0.41422
 C2840 C 1.19353 0.41345 0.43363
 C2841 C 1.17716 0.42175 0.44090
 C2842 C 1.16330 0.42921 0.42880
 C2843 C 1.16646 0.42853 0.40926
 C2844 C 1.18297 0.42045 0.40203
 H2845 H 1.26252 0.39477 0.34440
 H2846 H 1.23480 0.41060 0.35713
 H2847 H 1.23832 0.37710 0.40741
 H2848 H 1.26584 0.36090 0.39502
 H2849 H 1.20393 0.40757 0.44316
 H2850 H 1.17536 0.42232 0.45601
 H2851 H 1.15595 0.43380 0.39951
 H2852 H 1.18493 0.41990 0.38694
 C2853 C 0.75472 0.88543 0.35867
 C2854 C 0.73858 0.89418 0.36596
 C2855 C 0.73367 0.89192 0.38488
 C2856 C 0.74500 0.88053 0.39648
 C2857 C 0.76105 0.87159 0.38915
 C2858 C 0.76615 0.87405 0.37019
 N2859 N 0.71710 0.90123 0.39188
 N2860 N 0.71293 0.90158 0.40929
 C2861 C 0.69621 0.91071 0.41618
 C2862 C 0.69346 0.91217 0.43561
 C2863 C 0.67718 0.92075 0.44281
 C2864 C 0.66321 0.92792 0.43065
 C2865 C 0.66607 0.92648 0.41111
 C2866 C 0.68243 0.91801 0.40394
 H2867 H 0.75811 0.88745 0.34397
 H2868 H 0.72992 0.90284 0.35686
 H2869 H 0.74144 0.87850 0.41115
 H2870 H 0.76961 0.86301 0.39841
 H2871 H 0.70400 0.90665 0.44519
 H2872 H 0.67558 0.92186 0.45791
 H2873 H 0.65548 0.93153 0.40134
 H2874 H 0.68417 0.91696 0.38885
 C2875 C 0.75117 0.38222 0.85951
 C2876 C 0.73538 0.39115 0.86721
 C2877 C 0.73163 0.38988 0.88646
 C2878 C 0.74373 0.37925 0.89801
 C2879 C 0.75950 0.37014 0.89027
 C2880 C 0.76346 0.37169 0.87095
 N2881 N 0.71540 0.39946 0.89377
 N2882 N 0.71184 0.40045 0.91128
 C2883 C 0.69537 0.40995 0.91821
 C2884 C 0.69259 0.41135 0.93763
 C2885 C 0.67638 0.42007 0.94480
 C2886 C 0.66258 0.42746 0.93259
 C2887 C 0.66555 0.42626 0.91308
 C2888 C 0.68181 0.41762 0.90594
 H2889 H 0.75364 0.38350 0.84454
 H2890 H 0.72608 0.39921 0.85818
 H2891 H 0.74103 0.37800 0.91295
 H2892 H 0.76874 0.36221 0.89947
 H2893 H 0.70298 0.40557 0.94722
 H2894 H 0.67461 0.42099 0.95990
 H2895 H 0.65507 0.43154 0.90330
 H2896 H 0.68360 0.41668 0.89085
 C2897 C 0.74697 0.85675 1.11214
 C2898 C 0.76294 0.86391 1.10306
 C2899 C 0.76767 0.88285 1.10482
 C2900 C 0.75631 0.89461 1.11599
 C2901 C 0.74043 0.88743 1.12524
 C2902 C 0.73554 0.86843 1.12335
 N2903 N 0.78414 0.88972 1.09531
 N2904 N 0.78816 0.90709 1.09477
 C2905 C 0.80481 0.91398 1.08562
 C2906 C 0.80755 0.93335 1.08436
 C2907 C 0.82391 0.94056 1.07603
 C2908 C 0.83794 0.92845 1.06891
 C2909 C 0.83504 0.90897 1.07002
 C2910 C 0.81861 0.90179 1.07826
 H2911 H 0.74372 0.84202 1.11055
 H2912 H 0.77165 0.85469 1.09457
 H2913 H 0.75972 0.90930 1.11763
 H2914 H 0.73186 0.89682 1.13365
 H2915 H 0.79700 0.94289 1.08994
 H2916 H 0.82557 0.95562 1.07515
 H2917 H 0.84569 0.89926 1.06496
 H2918 H 0.81685 0.88674 1.07915
 C2919 C 0.74607 0.35779 0.61483
 C2920 C 0.76205 0.36538 0.60613
 C2921 C 0.76667 0.38426 0.60863
 C2922 C 0.75516 0.39552 0.62016
 C2923 C 0.73923 0.38790 0.62904
 C2924 C 0.73446 0.36895 0.62638
 N2925 N 0.78317 0.39150 0.59942
 N2926 N 0.78736 0.40884 0.59955
 C2927 C 0.80406 0.41585 0.59051
 C2928 C 0.80709 0.43522 0.58989
 C2929 C 0.82342 0.44249 0.58151
 C2930 C 0.83714 0.43045 0.57367
 C2931 C 0.83397 0.41099 0.57421
 C2932 C 0.81758 0.40375 0.58250
 H2933 H 0.74295 0.34311 0.61264
 H2934 H 0.77085 0.35653 0.59735
 H2935 H 0.75848 0.41016 0.62236
 H2936 H 0.73053 0.39691 0.63773
 H2937 H 0.79677 0.44470 0.59595
 H2938 H 0.82526 0.45755 0.58109
 H2939 H 0.84436 0.40130 0.56861
 H2940 H 0.81561 0.38871 0.58286
 C2941 C 0.24568 0.85852 0.61393
 C2942 C 0.26179 0.86591 0.60531
 C2943 C 0.26611 0.88494 0.60709
 C2944 C 0.25423 0.89654 0.61790
 C2945 C 0.23818 0.88912 0.62670
 C2946 C 0.23365 0.87005 0.62468
 N2947 N 0.28263 0.89202 0.59783
 N2948 N 0.28645 0.90944 0.59721
 C2949 C 0.30311 0.91639 0.58809
 C2950 C 0.30574 0.93577 0.58673
 C2951 C 0.32200 0.94303 0.57825
 C2952 C 0.33605 0.93097 0.57106
 C2953 C 0.33327 0.91148 0.57230
 C2954 C 0.31694 0.90425 0.58070
 H2955 H 0.24277 0.84373 0.61228
 H2956 H 0.27088 0.85681 0.59710
 H2957 H 0.25734 0.91130 0.61955
 H2958 H 0.22917 0.89839 0.63480
 H2959 H 0.29516 0.94528 0.59231
 H2960 H 0.32357 0.95810 0.57728
 H2961 H 0.34393 0.90180 0.56719
 H2962 H 0.31527 0.88919 0.58164
 C2963 C 0.23419 0.37215 1.10441
 C2964 C 0.24964 0.38009 1.09515
 C2965 C 0.26304 0.39041 1.10513
 C2966 C 0.26059 0.39310 1.12458
 C2967 C 0.24497 0.38531 1.13387
 C2968 C 0.23175 0.37453 1.12389
 N2969 N 0.27902 0.39778 1.09517
 N2970 N 0.29283 0.40551 1.10354
 C2971 C 0.30879 0.41285 1.09352
 C2972 C 0.32401 0.41994 1.10378
 C2973 C 0.33975 0.42735 1.09455
 C2974 C 0.34050 0.42800 1.07477
 C2975 C 0.32527 0.42066 1.06446
 C2976 C 0.30954 0.41314 1.07375
 H2977 H 0.22412 0.36418 1.09625
 H2978 H 0.25131 0.37801 1.08015
 H2979 H 0.27075 0.40112 1.13259
 H2980 H 0.24349 0.38733 1.14888
 H2981 H 0.32368 0.41967 1.11900
 H2982 H 0.35141 0.43250 1.10292
 H2983 H 0.32537 0.42107 1.04924
 H2984 H 0.29792 0.40773 1.06550
 C2985 C 0.74848 1.11746 0.85754
 C2986 C 0.76441 1.10854 0.86497
 C2987 C 0.76840 1.10967 0.88417
 C2988 C 0.75638 1.12017 0.89593
 C2989 C 0.74047 1.12928 0.88846
 C2990 C 0.73627 1.12786 0.86919
 N2991 N 0.78478 1.10010 0.89120
 N2992 N 0.78850 1.09886 0.90866
 C2993 C 0.80511 1.08938 0.91533
 C2994 C 0.80789 1.08752 0.93471
 C2995 C 0.82420 1.07880 0.94166
 C2996 C 0.83813 1.07187 0.92929
 C2997 C 0.83515 1.07354 0.90981
 C2998 C 0.81879 1.08218 0.90288
 H2999 H 0.74583 1.11628 0.84260
 H3000 H 0.77363 1.10059 0.85576
 H3001 H 0.75925 1.12131 0.91084
 H3002 H 0.73131 1.13711 0.89782
 H3003 H 0.79743 1.09293 0.94445
 H3004 H 0.82593 1.07750 0.95673
 H3005 H 0.84570 1.06864 0.89990
 H3006 H 0.81699 1.08349 0.88782
 C3007 C 0.73515 0.60534 0.36790
 C3008 C 0.75066 0.59609 0.37584
 C3009 C 0.76338 0.60580 0.38725
 C3010 C 0.76033 0.62497 0.39079
 C3011 C 0.74472 0.63421 0.38299
 C3012 C 0.73199 0.62450 0.37140
 N3013 N 0.77916 0.59590 0.39511
 N3014 N 0.79215 0.60425 0.40416
 C3015 C 0.80788 0.59443 0.41220
 C3016 C 0.82250 0.60480 0.42027
 C3017 C 0.83808 0.59573 0.42827
 C3018 C 0.83922 0.57603 0.42852
 C3019 C 0.82448 0.56563 0.42038
 C3020 C 0.80895 0.57474 0.41225
 H3021 H 0.72552 0.59738 0.35923
 H3022 H 0.75282 0.58131 0.37306
 H3023 H 0.76996 0.63278 0.39961
 H3024 H 0.74276 0.64899 0.38585
 H3025 H 0.82188 0.61997 0.42024
 H3026 H 0.84936 0.60419 0.43403
 H3027 H 0.82484 0.55045 0.42050
 H3028 H 0.79775 0.56642 0.40616
 C3029 C 0.24549 1.14196 0.38425
 C3030 C 0.26152 1.13440 0.39291
 C3031 C 0.26618 1.11548 0.39059
 C3032 C 0.25466 1.10413 0.37926
 C3033 C 0.23868 1.11172 0.37041
 C3034 C 0.23388 1.13070 0.37290
 N3035 N 0.28273 1.10829 0.39972
 N3036 N 0.28692 1.09092 0.39982
 C3037 C 0.30371 1.08398 0.40876
 C3038 C 0.30674 1.06461 0.40975
 C3039 C 0.32316 1.05741 0.41804
 C3040 C 0.33696 1.06953 0.42540
 C3041 C 0.33380 1.08900 0.42449
 C3042 C 0.31731 1.09616 0.41630
 H3043 H 0.24233 1.15667 0.38630
 H3044 H 0.27034 1.14331 0.40153
 H3045 H 0.25802 1.08945 0.37720
 H3046 H 0.22997 1.10265 0.36187
 H3047 H 0.29633 1.05507 0.40405
 H3048 H 0.32502 1.04235 0.41875
 H3049 H 0.34425 1.09874 0.42972
 H3050 H 0.31535 1.11121 0.41563
 C3051 C 0.23699 0.60562 0.87020
 C3052 C 0.25248 0.59655 0.87834
 C3053 C 0.26519 0.60650 0.88953
 C3054 C 0.26204 0.62571 0.89282
 C3055 C 0.24639 0.63478 0.88485
 C3056 C 0.23381 0.62485 0.87330
 N3057 N 0.28116 0.59679 0.89724
 N3058 N 0.29441 0.60531 0.90572
 C3059 C 0.31037 0.59558 0.91344
 C3060 C 0.32527 0.60604 0.92085
 C3061 C 0.34108 0.59707 0.92847
 C3062 C 0.34218 0.57736 0.92904
 C3063 C 0.32719 0.56686 0.92151
 C3064 C 0.31141 0.57589 0.91375
 H3065 H 0.22743 0.59750 0.86161
 H3066 H 0.25471 0.58174 0.87577
 H3067 H 0.27166 0.63368 0.90150
 H3068 H 0.24436 0.64960 0.88742
 H3069 H 0.32467 0.62121 0.92059
 H3070 H 0.35254 0.60559 0.93376
 H3071 H 0.32751 0.55169 0.92190
 H3072 H 0.30001 0.56750 0.90814
 C3073 C 1.14150 1.25198 1.11463
 C3074 C 1.13420 1.23607 1.10588
 C3075 C 1.11502 1.23166 1.10759
 C3076 C 1.10317 1.24323 1.11846
 C3077 C 1.11050 1.25907 1.12740
 C3078 C 1.12972 1.26368 1.12545
 N3079 N 1.10803 1.21533 1.09826
 N3080 N 1.09048 1.21148 1.09756
 C3081 C 1.08366 1.19494 1.08845
 C3082 C 1.06414 1.19217 1.08705
 C3083 C 1.05703 1.17594 1.07870
 C3084 C 1.06939 1.16209 1.07171
 C3085 C 1.08902 1.16504 1.07296
 C3086 C 1.09610 1.18133 1.08122
 H3087 H 1.15642 1.25500 1.11304
 H3088 H 1.14348 1.22720 1.09763
 H3089 H 1.08829 1.24003 1.12006
 H3090 H 1.10105 1.26786 1.13553
 H3091 H 1.05442 1.20260 1.09250
 H3092 H 1.04185 1.17422 1.07771
 H3093 H 1.09892 1.15454 1.06799
 H3094 H 1.11127 1.18312 1.08220
 C3095 C 1.11443 0.75186 0.64078
 C3096 C 1.10574 0.73593 0.63342
 C3097 C 1.10757 0.73156 0.61436
 C3098 C 1.11843 0.74323 0.60265
 C3099 C 1.12729 0.75910 0.61003
 C3100 C 1.12530 0.76363 0.62917
 N3101 N 1.09842 0.71512 0.60736
 N3102 N 1.09791 0.71116 0.58993
 C3103 C 1.08899 0.69448 0.58319
 C3104 C 1.08763 0.69157 0.56380
 C3105 C 1.07940 0.67522 0.55679
 C3106 C 1.07249 0.66140 0.56914
 C3107 C 1.07374 0.66446 0.58863
 C3108 C 1.08186 0.68086 0.59560
 H3109 H 1.11278 0.75481 0.65562
 H3110 H 1.09749 0.72698 0.64259
 H3111 H 1.12010 0.74008 0.58785
 H3112 H 1.13546 0.76794 0.60070
 H3113 H 1.09301 0.70199 0.55409
 H3114 H 1.07841 0.67341 0.54172
 H3115 H 1.06885 0.65398 0.59852
 H3116 H 1.08283 0.68274 0.61067
 C3117 C 0.60245 1.26377 0.62983
 C3118 C 0.59319 1.24841 0.62196
 C3119 C 0.60322 1.23529 0.61128
 C3120 C 0.62273 1.23780 0.60833
 C3121 C 0.63200 1.25328 0.61605
 C3122 C 0.62196 1.26638 0.62697
 N3123 N 0.59329 1.21959 0.60362
 N3124 N 0.60186 1.20618 0.59543
 C3125 C 0.59203 1.19051 0.58763
 C3126 C 0.60258 1.17549 0.58056
 C3127 C 0.59352 1.15997 0.57279
 C3128 C 0.57365 1.15928 0.57172
 C3129 C 0.56305 1.17439 0.57892
 C3130 C 0.57216 1.18987 0.58684
 H3131 H 0.59423 1.27369 0.63797
 H3132 H 0.57815 1.24665 0.62428
 H3133 H 0.63079 1.22785 0.60006
 H3134 H 0.64705 1.25482 0.61369
 H3135 H 0.61788 1.17578 0.58119
 H3136 H 0.60212 1.14841 0.56778
 H3137 H 0.54775 1.17436 0.57815
 H3138 H 0.56370 1.20138 0.59217
 C3139 C 0.61270 0.75428 1.14387
 C3140 C 0.60379 0.73830 1.13682
 C3141 C 0.60590 0.73329 1.11793
 C3142 C 0.61719 0.74442 1.10609
 C3143 C 0.62627 0.76029 1.11316
 C3144 C 0.62409 0.76541 1.13212
 N3145 N 0.59671 0.71674 1.11121
 N3146 N 0.59647 0.71246 1.09384
 C3147 C 0.58771 0.69569 1.08713
 C3148 C 0.58648 0.69274 1.06773
 C3149 C 0.57849 0.67629 1.06070
 C3150 C 0.57172 0.66237 1.07300
 C3151 C 0.57287 0.66545 1.09251
 C3152 C 0.58073 0.68198 1.09952
 H3153 H 0.61088 0.75773 1.15858
 H3154 H 0.59519 0.72979 1.14611
 H3155 H 0.61909 0.74079 1.09143
 H3156 H 0.63481 0.76865 1.10370
 H3157 H 0.59176 0.70323 1.05805
 H3158 H 0.57755 0.67451 1.04561
 H3159 H 0.56808 0.65491 1.10239
 H3160 H 0.58163 0.68389 1.11458
 C3161 C 0.89760 1.26647 0.86952
 C3162 C 0.90684 1.25088 0.87717
 C3163 C 0.89689 1.23792 0.88809
 C3164 C 0.87750 1.24083 0.89152
 C3165 C 0.86827 1.25652 0.88402
 C3166 C 0.87820 1.26946 0.87285
 N3167 N 0.90678 1.22198 0.89552
 N3168 N 0.89820 1.20876 0.90398
 C3169 C 0.90795 1.19283 0.91158
 C3170 C 0.89732 1.17813 0.91911
 C3171 C 0.90628 1.16240 0.92675
 C3172 C 0.92616 1.16116 0.92719
 C3173 C 0.93683 1.17595 0.91953
 C3174 C 0.92781 1.19165 0.91176
 H3175 H 0.90572 1.27626 0.86116
 H3176 H 0.92179 1.24884 0.87448
 H3177 H 0.86950 1.23101 0.89997
 H3178 H 0.85330 1.25833 0.88673
 H3179 H 0.88201 1.17884 0.91896
 H3180 H 0.89761 1.15112 0.93214
 H3181 H 0.95215 1.17551 0.91980
 H3182 H 0.93634 1.20290 0.90607
 C3183 C 0.89564 0.76422 0.37138
 C3184 C 0.90484 0.74878 0.37930
 C3185 C 0.89482 0.73595 0.39030
 C3186 C 0.87543 0.73893 0.39368
 C3187 C 0.86622 0.75454 0.38592
 C3188 C 0.87622 0.76721 0.37451
 N3189 N 0.90467 0.71999 0.39769
 N3190 N 0.89613 0.70660 0.40589
 C3191 C 0.90605 0.69068 0.41327
 C3192 C 0.89560 0.67575 0.42057
 C3193 C 0.90477 0.66003 0.42798
 C3194 C 0.92467 0.65905 0.42841
 C3195 C 0.93516 0.67402 0.42089
 C3196 C 0.92593 0.68971 0.41336
 H3197 H 0.90381 0.77386 0.36288
 H3198 H 0.91980 0.74667 0.37669
 H3199 H 0.86740 0.72921 0.40222
 H3200 H 0.85124 0.75646 0.38850
 H3201 H 0.88028 0.67628 0.42045
 H3202 H 0.89626 0.64858 0.43327
 H3203 H 0.95047 0.67375 0.42115
 H3204 H 0.93432 0.70112 0.40780
 C3205 C 0.35745 1.25353 0.38730
 C3206 C 0.36470 1.23750 0.39608
 C3207 C 0.38365 1.23236 0.39357
 C3208 C 0.39534 1.24339 0.38203
 C3209 C 0.38805 1.25931 0.37308
 C3210 C 0.36903 1.26456 0.37565
 N3211 N 0.39058 1.21576 0.40262
 N3212 N 0.40805 1.21138 0.40261
 C3213 C 0.41490 1.19454 0.41127
 C3214 C 0.43443 1.19156 0.41246
 C3215 C 0.44157 1.17507 0.42044
 C3216 C 0.42923 1.16116 0.42724
 C3217 C 0.40959 1.16427 0.42606
 C3218 C 0.40249 1.18083 0.41822
 H3219 H 0.34270 1.25709 0.38943
 H3220 H 0.35554 1.22906 0.40487
 H3221 H 0.41003 1.23966 0.37983
 H3222 H 0.39738 1.26760 0.36434
 H3223 H 0.44413 1.20205 0.40719
 H3224 H 0.45675 1.17326 0.42138
 H3225 H 0.39969 1.15374 0.43083
 H3226 H 0.38731 1.18276 0.41733
 C3227 C 0.35859 0.75409 0.88828
 C3228 C 0.36602 0.73825 0.89725
 C3229 C 0.38507 0.73339 0.89496
 C3230 C 0.39667 0.74451 0.88343
 C3231 C 0.38922 0.76026 0.87430
 C3232 C 0.37010 0.76525 0.87667
 N3233 N 0.39220 0.71701 0.90427
 N3234 N 0.40972 0.71281 0.90423
 C3235 C 0.41683 0.69624 0.91321
 C3236 C 0.43640 0.69337 0.91402
 C3237 C 0.44381 0.67716 0.92230
 C3238 C 0.43172 0.66340 0.92980
 C3239 C 0.41204 0.66640 0.92904
 C3240 C 0.40466 0.68268 0.92087
 H3241 H 0.34377 0.75743 0.89026
 H3242 H 0.35692 0.72974 0.90604
 H3243 H 0.41145 0.74101 0.88139
 H3244 H 0.39851 0.76864 0.86560
 H3245 H 0.44592 0.70374 0.90820
 H3246 H 0.45903 0.67542 0.92289
 H3247 H 0.40232 0.65596 0.93438
 H3248 H 0.38946 0.68453 0.92029
 C3249 C 1.10387 0.73447 0.86694
 C3250 C 1.09457 0.75004 0.87452
 C3251 C 1.10437 0.76287 0.88566
 C3252 C 1.12368 0.75982 0.88938
 C3253 C 1.13298 0.74414 0.88195
 C3254 C 1.12319 0.73135 0.87054
 N3255 N 1.09442 0.77881 0.89300
 N3256 N 1.10289 0.79192 0.90167
 C3257 C 1.09307 0.80784 0.90918
 C3258 C 1.10364 0.82236 0.91705
 C3259 C 1.09462 0.83805 0.92467
 C3260 C 1.07474 0.83944 0.92476
 C3261 C 1.06413 0.82485 0.91671
 C3262 C 1.07322 0.80918 0.90896
 H3263 H 1.09584 0.72479 0.85842
 H3264 H 1.07968 0.75219 0.87162
 H3265 H 1.13157 0.76952 0.89801
 H3266 H 1.14788 0.74221 0.88489
 H3267 H 1.11894 0.82154 0.91721
 H3268 H 1.10325 0.84919 0.93036
 H3269 H 1.04882 0.82541 0.91670
 H3270 H 1.06474 0.79808 0.90299
 C3271 C 1.10165 0.23622 0.36904
 C3272 C 1.09234 0.25168 0.37677
 C3273 C 1.10233 0.26482 0.38736
 C3274 C 1.12182 0.26220 0.39039
 C3275 C 1.13113 0.24663 0.38280
 C3276 C 1.12116 0.23354 0.37194
 N3277 N 1.09239 0.28066 0.39484
 N3278 N 1.10102 0.29407 0.40282
 C3279 C 1.09128 0.30992 0.41048
 C3280 C 1.10193 0.32482 0.41744
 C3281 C 1.09298 0.34046 0.42518
 C3282 C 1.07311 0.34138 0.42631
 C3283 C 1.06240 0.32643 0.41917
 C3284 C 1.07141 0.31081 0.41128
 H3285 H 1.09350 0.22629 0.36094
 H3286 H 1.07731 0.25352 0.37440
 H3287 H 1.12983 0.27216 0.39861
 H3288 H 1.14617 0.24503 0.38520
 H3289 H 1.11723 0.32432 0.41678
 H3290 H 1.10163 0.35192 0.43017
 H3291 H 1.04710 0.32667 0.41997
 H3292 H 1.06288 0.29939 0.40601
 C3293 C 0.60405 0.73575 0.37233
 C3294 C 0.59501 0.75115 0.38048
 C3295 C 0.60526 0.76401 0.39113
 C3296 C 0.62477 0.76116 0.39387
 C3297 C 0.63383 0.74562 0.38586
 C3298 C 0.62358 0.73286 0.37486
 N3299 N 0.59552 0.77985 0.39887
 N3300 N 0.60417 0.79310 0.40711
 C3301 C 0.59433 0.80891 0.41480
 C3302 C 0.60485 0.82375 0.42210
 C3303 C 0.59575 0.83945 0.42961
 C3304 C 0.57586 0.84049 0.43013
 C3305 C 0.56530 0.82555 0.42273
 C3306 C 0.57445 0.80989 0.41510
 H3307 H 0.59567 0.72606 0.36418
 H3308 H 0.57997 0.75317 0.37834
 H3309 H 0.63299 0.77092 0.40212
 H3310 H 0.64889 0.74380 0.38798
 H3311 H 0.62016 0.82320 0.42184
 H3312 H 0.60431 0.85088 0.43480
 H3313 H 0.54999 0.82586 0.42308
 H3314 H 0.56601 0.79853 0.40958
 C3315 C 0.60251 0.23408 0.86834
 C3316 C 0.59334 0.24972 0.87595
 C3317 C 0.60326 0.26250 0.88705
 C3318 C 0.62257 0.25934 0.89067
 C3319 C 0.63175 0.24359 0.88320
 C3320 C 0.62183 0.23084 0.87186
 N3321 N 0.59341 0.27848 0.89446
 N3322 N 0.60194 0.29149 0.90322
 C3323 C 0.59222 0.30745 0.91083
 C3324 C 0.60286 0.32177 0.91897
 C3325 C 0.59393 0.33745 0.92673
 C3326 C 0.57407 0.33905 0.92667
 C3327 C 0.56339 0.32468 0.91833
 C3328 C 0.57238 0.30901 0.91045
 H3329 H 0.59439 0.22446 0.85986
 H3330 H 0.57845 0.25195 0.87310
 H3331 H 0.63056 0.26900 0.89926
 H3332 H 0.64665 0.24159 0.88608
 H3333 H 0.61815 0.32078 0.91925
 H3334 H 0.60263 0.34842 0.93265
 H3335 H 0.54808 0.32540 0.91818
 H3336 H 0.56384 0.29808 0.90426
 C3337 C 0.89624 0.73671 1.13313
 C3338 C 0.90549 0.75210 1.12516
 C3339 C 0.89567 0.76460 1.11352
 C3340 C 0.87640 0.76149 1.10985
 C3341 C 0.86717 0.74603 1.11768
 C3342 C 0.87699 0.73346 1.12941
 N3343 N 0.90556 0.78022 1.10552
 N3344 N 0.89703 0.79284 1.09609
 C3345 C 0.90672 0.80844 1.08787
 C3346 C 0.89605 0.82268 1.07943
 C3347 C 0.90496 0.83817 1.07132
 C3348 C 0.92482 0.83960 1.07131
 C3349 C 0.93552 0.82520 1.07975
 C3350 C 0.92656 0.80977 1.08800
 H3351 H 0.90428 0.72723 1.14195
 H3352 H 0.92035 0.75432 1.12807
 H3353 H 0.86848 0.77096 1.10088
 H3354 H 0.85231 0.74406 1.11467
 H3355 H 0.88076 0.82185 1.07930
 H3356 H 0.89625 0.84917 1.06533
 H3357 H 0.95083 0.82577 1.07980
 H3358 H 0.93511 0.79886 1.09436
 C3359 C 0.88749 0.24629 0.64159
 C3360 C 0.89620 0.26231 0.63431
 C3361 C 0.89373 0.26734 0.61545
 C3362 C 0.88230 0.25615 0.60388
 C3363 C 0.87343 0.24021 0.61118
 C3364 C 0.87596 0.23508 0.63012
 N3365 N 0.90276 0.28393 0.60849
 N3366 N 0.90255 0.28838 0.59115
 C3367 C 0.91126 0.30516 0.58426
 C3368 C 0.91194 0.30833 0.56485
 C3369 C 0.92000 0.32472 0.55766
 C3370 C 0.92743 0.33838 0.56983
 C3371 C 0.92678 0.33510 0.58934
 C3372 C 0.91883 0.31863 0.59649
 H3373 H 0.88959 0.24286 0.65627
 H3374 H 0.90492 0.27086 0.64339
 H3375 H 0.88014 0.25976 0.58925
 H3376 H 0.86479 0.23182 0.60192
 H3377 H 0.90619 0.29803 0.55527
 H3378 H 0.92051 0.32666 0.54257
 H3379 H 0.93207 0.34544 0.59913
 H3380 H 0.91837 0.31657 0.61157
 C3381 C 0.39627 0.73777 0.63402
 C3382 C 0.40536 0.75332 0.62616
 C3383 C 0.39544 0.76578 0.61455
 C3384 C 0.37622 0.76245 0.61081
 C3385 C 0.36715 0.74682 0.61853
 C3386 C 0.37707 0.73430 0.63024
 N3387 N 0.40516 0.78158 0.60668
 N3388 N 0.39648 0.79422 0.59740
 C3389 C 0.40596 0.81002 0.58927
 C3390 C 0.39508 0.82423 0.58106
 C3391 C 0.40375 0.83987 0.57298
 C3392 C 0.42359 0.84151 0.57277
 C3393 C 0.43451 0.82714 0.58100
 C3394 C 0.42578 0.81155 0.58923
 H3395 H 0.40439 0.72834 0.64283
 H3396 H 0.42018 0.75570 0.62914
 H3397 H 0.36822 0.77186 0.60186
 H3398 H 0.35233 0.74470 0.61545
 H3399 H 0.37979 0.82324 0.58106
 H3400 H 0.39486 0.85081 0.56716
 H3401 H 0.44981 0.82785 0.58090
 H3402 H 0.43450 0.80067 0.59541
 C3403 C 0.38606 0.24644 1.14196
 C3404 C 0.39484 0.26246 1.13474
 C3405 C 0.39271 0.26733 1.11580
 C3406 C 0.38153 0.25603 1.10409
 C3407 C 0.37259 0.24012 1.11134
 C3408 C 0.37479 0.23513 1.13035
 N3409 N 0.40180 0.28390 1.10890
 N3410 N 0.40209 0.28811 1.09150
 C3411 C 0.41086 0.30489 1.08467
 C3412 C 0.41237 0.30770 1.06526
 C3413 C 0.42053 0.32407 1.05813
 C3414 C 0.42721 0.33805 1.07037
 C3415 C 0.42569 0.33513 1.08989
 C3416 C 0.41766 0.31869 1.09699
 H3417 H 0.38791 0.24310 1.15670
 H3418 H 0.40335 0.27109 1.14392
 H3419 H 0.37963 0.25955 1.08940
 H3420 H 0.36415 0.23162 1.10198
 H3421 H 0.40722 0.29715 1.05563
 H3422 H 0.42172 0.32573 1.04304
 H3423 H 0.43036 0.34573 1.09971
 H3424 H 0.41653 0.31690 1.11206
 C3425 C 1.10440 1.13195 0.73644
 C3426 C 1.09554 1.12428 0.75220
 C3427 C 1.10491 1.11110 0.76334
 C3428 C 1.12324 1.10529 0.75835
 C3429 C 1.13208 1.11272 0.74238
 C3430 C 1.12286 1.12635 0.73124
 N3431 N 1.09544 1.10393 0.77959
 N3432 N 1.10394 1.09428 0.79205
 C3433 C 1.09421 1.08712 0.80819
 C3434 C 1.10475 1.07923 0.82281
 C3435 C 1.09569 1.07221 0.83878
 C3436 C 1.07581 1.07264 0.84025
 C3437 C 1.06526 1.08065 0.82553
 C3438 C 1.07438 1.08788 0.80965
 H3439 H 1.09646 1.14211 0.72835
 H3440 H 1.08136 1.12876 0.75587
 H3441 H 1.13072 1.09499 0.76675
 H3442 H 1.14624 1.10798 0.73908
 H3443 H 1.12004 1.07867 0.82190
 H3444 H 1.10430 1.06658 0.85005
 H3445 H 1.04996 1.08103 0.82613
 H3446 H 1.06592 1.09387 0.79846
 C3447 C 1.10594 0.63429 0.23842
 C3448 C 1.09678 0.62657 0.25395
 C3449 C 1.10561 0.61280 0.26478
 C3450 C 1.12373 0.60642 0.25967
 C3451 C 1.13286 0.61390 0.24385
 C3452 C 1.12419 0.62814 0.23307
 N3453 N 1.09579 0.60561 0.28085
 N3454 N 1.10397 0.59569 0.29330
 C3455 C 1.09398 0.58848 0.30927
 C3456 C 1.10430 0.58028 0.32386
 C3457 C 1.09505 0.57297 0.33957
 C3458 C 1.07515 0.57342 0.34085
 C3459 C 1.06480 0.58185 0.32621
 C3460 C 1.07413 0.58938 0.31057
 H3461 H 1.09839 0.64488 0.23054
 H3462 H 1.08276 0.63149 0.25769
 H3463 H 1.13078 0.59565 0.26782
 H3464 H 1.14683 0.60869 0.24039
 H3465 H 1.11960 0.57965 0.32308
 H3466 H 1.10352 0.56703 0.35078
 H3467 H 1.04949 0.58228 0.32667
 H3468 H 1.06583 0.59563 0.29940
 C3469 C 0.64276 1.11123 0.24410
 C3470 C 0.63549 1.10234 0.26003
 C3471 C 0.61720 1.10630 0.26631
 C3472 C 0.60626 1.11967 0.25665
 C3473 C 0.61362 1.12887 0.24084
 C3474 C 0.63195 1.12465 0.23416
 N3475 N 0.61022 1.09665 0.28258
 N3476 N 0.59285 1.09702 0.28732
 C3477 C 0.58609 1.08758 0.30381
 C3478 C 0.56659 1.08634 0.30684
 C3479 C 0.55952 1.07766 0.32301
 C3480 C 0.57189 1.07026 0.33666
 C3481 C 0.59151 1.07133 0.33345
 C3482 C 0.59855 1.07985 0.31715
 H3483 H 0.65700 1.10761 0.23988
 H3484 H 0.64411 1.09216 0.26745
 H3485 H 0.59209 1.12307 0.26136
 H3486 H 0.60470 1.13901 0.23377
 H3487 H 0.55683 1.09215 0.29663
 H3488 H 0.54434 1.07679 0.32484
 H3489 H 0.60146 1.06607 0.34377
 H3490 H 0.61372 1.08071 0.31517
 C3491 C 0.60413 0.63338 0.73704
 C3492 C 0.59518 0.62541 0.75266
 C3493 C 0.60526 0.61385 0.76503
 C3494 C 0.62451 0.61024 0.76154
 C3495 C 0.63345 0.61807 0.74582
 C3496 C 0.62337 0.62975 0.73340
 N3497 N 0.59564 0.60592 0.78092
 N3498 N 0.60434 0.59669 0.79358
 C3499 C 0.59481 0.58859 0.80943
 C3500 C 0.60561 0.58046 0.82376
 C3501 C 0.59684 0.57253 0.83948
 C3502 C 0.57698 0.57238 0.84109
 C3503 C 0.56615 0.58050 0.82659
 C3504 C 0.57497 0.58858 0.81093
 H3505 H 0.59589 0.64216 0.72770
 H3506 H 0.58033 0.62828 0.75517
 H3507 H 0.63263 0.60133 0.77088
 H3508 H 0.64831 0.61511 0.74355
 H3509 H 0.62090 0.58044 0.82281
 H3510 H 0.60566 0.56677 0.85052
 H3511 H 0.55085 0.58044 0.82726
 H3512 H 0.56630 0.59470 0.79996
 C3513 C 0.88900 0.85748 0.74507
 C3514 C 0.89781 0.86486 0.76101
 C3515 C 0.89547 0.88377 0.76572
 C3516 C 0.88413 0.89529 0.75429
 C3517 C 0.87517 0.88790 0.73847
 C3518 C 0.87749 0.86891 0.73369
 N3519 N 0.90445 0.89085 0.78228
 N3520 N 0.90428 0.90822 0.78636
 C3521 C 0.91287 0.91532 0.80311
 C3522 C 0.91385 0.93473 0.80573
 C3523 C 0.92188 0.94212 0.82205
 C3524 C 0.92895 0.93017 0.83616
 C3525 C 0.92791 0.91065 0.83347
 C3526 C 0.92001 0.90329 0.81707
 H3527 H 0.89095 0.84277 0.74187
 H3528 H 0.90647 0.85583 0.76974
 H3529 H 0.88207 0.90996 0.75765
 H3530 H 0.86657 0.89714 0.72991
 H3531 H 0.90840 0.94414 0.79505
 H3532 H 0.92269 0.95720 0.82356
 H3533 H 0.93287 0.90103 0.84419
 H3534 H 0.91927 0.88822 0.81544
 C3535 C 0.88956 0.35994 0.24545
 C3536 C 0.89834 0.36756 0.26124
 C3537 C 0.89338 0.38541 0.26763
 C3538 C 0.87918 0.39553 0.25826
 C3539 C 0.87009 0.38782 0.24264
 C3540 C 0.87525 0.36994 0.23585
 N3541 N 0.90280 0.39277 0.28379
 N3542 N 0.90150 0.40993 0.28850
 C3543 C 0.91060 0.41702 0.30498
 C3544 C 0.91122 0.43639 0.30789
 C3545 C 0.91968 0.44369 0.32404
 C3546 C 0.92743 0.43166 0.33774
 C3547 C 0.92680 0.41218 0.33471
 C3548 C 0.91856 0.40492 0.31845
 H3549 H 0.89392 0.34608 0.24107
 H3550 H 0.90918 0.35957 0.26846
 H3551 H 0.87502 0.40934 0.26306
 H3552 H 0.85930 0.39615 0.23579
 H3553 H 0.90517 0.44584 0.29757
 H3554 H 0.92018 0.45876 0.32576
 H3555 H 0.93228 0.40248 0.34510
 H3556 H 0.91811 0.38987 0.31659
 C3557 C 0.36807 0.89400 0.23691
 C3558 C 0.37593 0.90286 0.25250
 C3559 C 0.38980 0.89392 0.26319
 C3560 C 0.39614 0.87600 0.25788
 C3561 C 0.38855 0.86718 0.24200
 C3562 C 0.37419 0.87596 0.23136
 N3563 N 0.39714 0.90345 0.27930
 N3564 N 0.40710 0.89524 0.29173
 C3565 C 0.41435 0.90508 0.30770
 C3566 C 0.42219 0.89481 0.32252
 C3567 C 0.42931 0.90395 0.33834
 C3568 C 0.42907 0.92367 0.33949
 C3569 C 0.42111 0.93397 0.32457
 C3570 C 0.41375 0.92476 0.30884
 H3571 H 0.35739 0.90163 0.22917
 H3572 H 0.37102 0.91672 0.25640
 H3573 H 0.40698 0.86886 0.26593
 H3574 H 0.39371 0.85335 0.23839
 H3575 H 0.42260 0.87964 0.32189
 H3576 H 0.43486 0.89552 0.34975
 H3577 H 0.42087 0.94914 0.32488
 H3578 H 0.40781 0.93303 0.29750
 C3579 C 0.39839 0.36981 0.73673
 C3580 C 0.40746 0.37773 0.75224
 C3581 C 0.39733 0.38873 0.76504
 C3582 C 0.37791 0.39186 0.76211
 C3583 C 0.36884 0.38407 0.74652
 C3584 C 0.37897 0.37291 0.73367
 N3585 N 0.40709 0.39661 0.78080
 N3586 N 0.39842 0.40542 0.79377
 C3587 C 0.40811 0.41347 0.80948
 C3588 C 0.39743 0.42131 0.82405
 C3589 C 0.40636 0.42926 0.83961
 C3590 C 0.42623 0.42970 0.84079
 C3591 C 0.43694 0.42182 0.82607
 C3592 C 0.42796 0.41373 0.81056
 H3593 H 0.40669 0.36146 0.72704
 H3594 H 0.42244 0.37526 0.75432
 H3595 H 0.36976 0.40035 0.77181
 H3596 H 0.35385 0.38662 0.74468
 H3597 H 0.38213 0.42111 0.82341
 H3598 H 0.39766 0.43481 0.85086
 H3599 H 0.45225 0.42210 0.82644
 H3600 H 0.43653 0.40782 0.79941
 C3601 C 1.10315 0.86450 1.26417
 C3602 C 1.09384 0.87210 1.24855
 C3603 C 1.10346 0.88386 1.23603
 C3604 C 1.12256 0.88810 1.23942
 C3605 C 1.13183 0.88067 1.25514
 C3606 C 1.12225 0.86872 1.26766
 N3607 N 1.09355 0.89132 1.22007
 N3608 N 1.10203 0.90039 1.20715
 C3609 C 1.09237 0.90812 1.19119
 C3610 C 1.10309 0.91612 1.17674
 C3611 C 1.09425 0.92396 1.16101
 C3612 C 1.07439 0.92416 1.15950
 C3613 C 1.06363 0.91601 1.17404
 C3614 C 1.07253 0.90803 1.18974
 H3615 H 1.09529 0.85550 1.27361
 H3616 H 1.07911 0.86876 1.24615
 H3617 H 1.13032 0.89720 1.22997
 H3618 H 1.14658 0.88408 1.25731
 H3619 H 1.11838 0.91619 1.17764
 H3620 H 1.10302 0.92969 1.14993
 H3621 H 1.04832 0.91608 1.17343
 H3622 H 1.06393 0.90199 1.20079
 C3623 C 1.14241 0.38686 0.75461
 C3624 C 1.13523 0.39532 0.73836
 C3625 C 1.11620 0.39319 0.73349
 C3626 C 1.10436 0.38230 0.74502
 C3627 C 1.11156 0.37369 0.76120
 C3628 C 1.13067 0.37594 0.76622
 N3629 N 1.10933 0.40209 0.71675
 N3630 N 1.09186 0.40225 0.71242
 C3631 C 1.08504 0.41092 0.69552
 C3632 C 1.06553 0.41189 0.69243
 C3633 C 1.05840 0.41994 0.67594
 C3634 C 1.07074 0.42704 0.66213
 C3635 C 1.09037 0.42611 0.66535
 C3636 C 1.09746 0.41818 0.68191
 H3637 H 1.15722 0.38873 0.75791
 H3638 H 1.14451 0.40362 0.72956
 H3639 H 1.08959 0.38040 0.74151
 H3640 H 1.10209 0.36548 0.76987
 H3641 H 1.05581 0.40639 0.70283
 H3642 H 1.04322 0.42067 0.67405
 H3643 H 1.10028 0.43115 0.65489
 H3644 H 1.11263 0.41751 0.68393
 C3645 C 0.64101 0.88726 0.75413
 C3646 C 0.63364 0.89605 0.73814
 C3647 C 0.61457 0.89396 0.73340
 C3648 C 0.60290 0.88274 0.74478
 C3649 C 0.61029 0.87379 0.76069
 C3650 C 0.62942 0.87604 0.76561
 N3651 N 0.60750 0.90320 0.71692
 N3652 N 0.58999 0.90341 0.71276
 C3653 C 0.58301 0.91237 0.69609
 C3654 C 0.56347 0.91345 0.69320
 C3655 C 0.55620 0.92180 0.67693
 C3656 C 0.56842 0.92911 0.66311
 C3657 C 0.58807 0.92806 0.66612
 C3658 C 0.59530 0.91982 0.68246
 H3659 H 0.65584 0.88912 0.75735
 H3660 H 0.64281 0.90458 0.72944
 H3661 H 0.58811 0.88084 0.74135
 H3662 H 0.60095 0.86534 0.76926
 H3663 H 0.55384 0.90780 0.70361
 H3664 H 0.54100 0.92260 0.67520
 H3665 H 0.59789 0.93324 0.65565
 H3666 H 0.61049 0.91906 0.68431
 C3667 C 0.60344 0.36318 1.26488
 C3668 C 0.59424 0.37049 1.24907
 C3669 C 0.60305 0.38391 1.23776
 C3670 C 0.62121 0.39020 1.24260
 C3671 C 0.63036 0.38314 1.25857
 C3672 C 0.62168 0.36941 1.26998
 N3673 N 0.59326 0.39100 1.22157
 N3674 N 0.60158 0.40082 1.20911
 C3675 C 0.59195 0.40828 1.19300
 C3676 C 0.60268 0.41632 1.17859
 C3677 C 0.59386 0.42401 1.16278
 C3678 C 0.57399 0.42414 1.16119
 C3679 C 0.56323 0.41592 1.17569
 C3680 C 0.57212 0.40800 1.19143
 H3681 H 0.59599 0.35283 1.27314
 H3682 H 0.58022 0.36556 1.24555
 H3683 H 0.62830 0.40066 1.23412
 H3684 H 0.64433 0.38839 1.26171
 H3685 H 0.61796 0.41652 1.17957
 H3686 H 0.60267 0.42973 1.15172
 H3687 H 0.54793 0.41592 1.17505
 H3688 H 0.56352 0.40194 1.20247
 C3689 C 0.88806 1.14111 1.25304
 C3690 C 0.89665 1.13354 1.23706
 C3691 C 0.89421 1.11463 1.23255
 C3692 C 0.88292 1.10329 1.24417
 C3693 C 0.87416 1.11088 1.26008
 C3694 C 0.87668 1.12988 1.26470
 N3695 N 0.90315 1.10740 1.21601
 N3696 N 0.90305 1.09003 1.21198
 C3697 C 0.91173 1.08297 1.19522
 C3698 C 0.91263 1.06358 1.19243
 C3699 C 0.92076 1.05626 1.17608
 C3700 C 0.92805 1.06827 1.16215
 C3701 C 0.92709 1.08777 1.16503
 C3702 C 0.91909 1.09506 1.18143
 H3703 H 0.89014 1.15581 1.25609
 H3704 H 0.90525 1.14242 1.22816
 H3705 H 0.88078 1.08863 1.24092
 H3706 H 0.86562 1.10181 1.26885
 H3707 H 0.90703 1.05414 1.20298
 H3708 H 0.92148 1.04119 1.17440
 H3709 H 0.93221 1.09743 1.15443
 H3710 H 0.91846 1.11012 1.18322
 C3711 C 0.87443 0.60475 0.76697
 C3712 C 0.88231 0.59560 0.75151
 C3713 C 0.89197 0.60572 0.73771
 C3714 C 0.89410 0.62522 0.73976
 C3715 C 0.88635 0.63442 0.75539
 C3716 C 0.87621 0.62428 0.76901
 N3717 N 0.89922 0.59584 0.72174
 N3718 N 0.90641 0.60423 0.70766
 C3719 C 0.91358 0.59421 0.69173
 C3720 C 0.92020 0.60438 0.67628
 C3721 C 0.92744 0.59510 0.66056
 C3722 C 0.92835 0.57539 0.66008
 C3723 C 0.92146 0.56516 0.67554
 C3724 C 0.91413 0.57449 0.69125
 H3725 H 0.86697 0.59647 0.77735
 H3726 H 0.88067 0.58057 0.75012
 H3727 H 0.90161 0.63334 0.72928
 H3728 H 0.88789 0.64947 0.75656
 H3729 H 0.91973 0.61956 0.67642
 H3730 H 0.93226 0.60338 0.64872
 H3731 H 0.92210 0.54999 0.67563
 H3732 H 0.90908 0.56631 0.70306
 C3733 C 0.36863 1.10546 0.76585
 C3734 C 0.37616 1.09626 0.75019
 C3735 C 0.38695 1.10606 0.73698
 C3736 C 0.39045 1.12527 0.73978
 C3737 C 0.38307 1.13447 0.75557
 C3738 C 0.37193 1.12470 0.76869
 N3739 N 0.39408 1.09621 0.72088
 N3740 N 0.40218 1.10462 0.70730
 C3741 C 0.40940 1.09487 0.69119
 C3742 C 0.41658 1.10535 0.67619
 C3743 C 0.42390 1.09642 0.66029
 C3744 C 0.42441 1.07671 0.65916
 C3745 C 0.41701 1.06618 0.67420
 C3746 C 0.40955 1.07518 0.69009
 H3747 H 0.36032 1.09743 0.77577
 H3748 H 0.37342 1.08146 0.74825
 H3749 H 0.39883 1.13315 0.72978
 H3750 H 0.38580 1.14930 0.75730
 H3751 H 0.41644 1.12052 0.67681
 H3752 H 0.42907 1.10499 0.64882
 H3753 H 0.41733 1.05101 0.67385
 H3754 H 0.40410 1.06676 0.70155
 C3755 C 0.39825 0.63686 1.26353
 C3756 C 0.40754 0.62875 1.24815
 C3757 C 0.39783 0.61673 1.23599
 C3758 C 0.37863 0.61294 1.23937
 C3759 C 0.36940 0.62087 1.25480
 C3760 C 0.37911 0.63285 1.26710
 N3761 N 0.40770 0.60840 1.22048
 N3762 N 0.39905 0.59878 1.20815
 C3763 C 0.40853 0.59003 1.19266
 C3764 C 0.39764 0.58192 1.17846
 C3765 C 0.40633 0.57339 1.16302
 C3766 C 0.42618 0.57257 1.16163
 C3767 C 0.43710 0.58057 1.17608
 C3768 C 0.42836 0.58929 1.19143
 H3769 H 0.40615 0.64593 1.27281
 H3770 H 0.42234 0.63179 1.24571
 H3771 H 0.37078 0.60372 1.23018
 H3772 H 0.35460 0.61767 1.25699
 H3773 H 0.38235 0.58244 1.17925
 H3774 H 0.39746 0.56776 1.15201
 H3775 H 0.45240 0.57998 1.17558
 H3776 H 0.43707 0.59534 1.20234
 C3777 C 1.10561 1.26225 0.86391
 C3778 C 1.09638 1.24665 0.87151
 C3779 C 1.10507 1.23574 0.88538
 C3780 C 1.12317 1.24069 0.89172
 C3781 C 1.13236 1.25641 0.88433
 C3782 C 1.12376 1.26749 0.87026
 N3783 N 1.09521 1.21987 0.89292
 N3784 N 1.10334 1.20793 0.90353
 C3785 C 1.09360 1.19217 0.91143
 C3786 C 1.10416 1.17807 0.92022
 C3787 C 1.09520 1.16248 0.92807
 C3788 C 1.07535 1.16082 0.92761
 C3789 C 1.06476 1.17511 0.91883
 C3790 C 1.07380 1.19061 0.91074
 H3791 H 1.09825 1.27022 0.85322
 H3792 H 1.08240 1.24300 0.86652
 H3793 H 1.13019 1.23251 0.90251
 H3794 H 1.14627 1.25964 0.88968
 H3795 H 1.11944 1.17908 0.92079
 H3796 H 1.10390 1.15159 0.93427
 H3797 H 1.04946 1.17445 0.91841
 H3798 H 1.06531 1.20143 0.90415
 C3799 C 1.13448 0.76138 0.39646
 C3800 C 1.12704 0.74576 0.40568
 C3801 C 1.11344 0.73464 0.39698
 C3802 C 1.10700 0.73950 0.37894
 C3803 C 1.11418 0.75532 0.36976
 C3804 C 1.12820 0.76645 0.37830
 N3805 N 1.10643 0.71852 0.40674
 N3806 N 1.09653 0.70614 0.39853
 C3807 C 1.08928 0.69010 0.40823
 C3808 C 1.08104 0.67577 0.39773
 C3809 C 1.07362 0.65999 0.40666
 C3810 C 1.07399 0.65840 0.42640
 C3811 C 1.08243 0.67278 0.43693
 C3812 C 1.09008 0.68850 0.42792
 H3813 H 1.14499 0.76950 0.40384
 H3814 H 1.13205 0.74220 0.41963
 H3815 H 1.09638 0.73112 0.37196
 H3816 H 1.10890 0.75849 0.35585
 H3817 H 1.08047 0.67680 0.38254
 H3818 H 1.06768 0.64897 0.39807
 H3819 H 1.08281 0.67207 0.45213
 H3820 H 1.09634 0.69948 0.43633
 C3821 C 0.64119 1.25387 0.38893
 C3822 C 0.63393 1.23792 0.39774
 C3823 C 0.61545 1.23209 0.39419
 C3824 C 0.60427 1.24225 0.38142
 C3825 C 0.61157 1.25810 0.37236
 C3826 C 0.63014 1.26429 0.37608
 N3827 N 0.60852 1.21572 0.40358
 N3828 N 0.59115 1.21110 0.40324
 C3829 C 0.58442 1.19448 0.41235
 C3830 C 0.56493 1.19139 0.41345
 C3831 C 0.55792 1.17508 0.42180
 C3832 C 0.57035 1.16138 0.42899
 C3833 C 0.58995 1.16464 0.42802
 C3834 C 0.59693 1.18106 0.41984
 H3835 H 0.65557 1.25775 0.39221
 H3836 H 0.64271 1.23013 0.40749
 H3837 H 0.58994 1.23790 0.37835
 H3838 H 0.60245 1.26553 0.36268
 H3839 H 0.55515 1.20166 0.40779
 H3840 H 0.54274 1.17318 0.42260
 H3841 H 0.59993 1.15428 0.43313
 H3842 H 0.61209 1.18308 0.41906
 C3843 C 0.60347 0.76353 0.86700
 C3844 C 0.59435 0.74812 0.87512
 C3845 C 0.60429 0.73573 0.88678
 C3846 C 0.62357 0.73894 0.89029
 C3847 C 0.63267 0.75440 0.88232
 C3848 C 0.62273 0.76692 0.87061
 N3849 N 0.59454 0.72008 0.89491
 N3850 N 0.60321 0.70754 0.90434
 C3851 C 0.59373 0.69186 0.91267
 C3852 C 0.60460 0.67771 0.92102
 C3853 C 0.59592 0.66212 0.92918
 C3854 C 0.57608 0.66047 0.92933
 C3855 C 0.56517 0.67479 0.92100
 C3856 C 0.57391 0.69033 0.91270
 H3857 H 0.59535 0.77292 0.85817
 H3858 H 0.57948 0.74581 0.87230
 H3859 H 0.63158 0.72956 0.89926
 H3860 H 0.64754 0.75644 0.88524
 H3861 H 0.61989 0.67870 0.92102
 H3862 H 0.60479 0.65120 0.93508
 H3863 H 0.54987 0.67408 0.92106
 H3864 H 0.56520 0.70116 0.90641
 C3865 C 0.89593 1.26341 1.13175
 C3866 C 0.90515 1.24794 1.12393
 C3867 C 0.89527 1.23533 1.11261
 C3868 C 0.87598 1.23854 1.10891
 C3869 C 0.86676 1.25417 1.11658
 C3870 C 0.87662 1.26668 1.12821
 N3871 N 0.90514 1.21939 1.10519
 N3872 N 0.89664 1.20629 1.09654
 C3873 C 0.90647 1.19035 1.08908
 C3874 C 0.89595 1.17577 1.08128
 C3875 C 0.90501 1.16003 1.07380
 C3876 C 0.92489 1.15867 1.07379
 C3877 C 0.93546 1.17331 1.08178
 C3878 C 0.92633 1.18902 1.08940
 H3879 H 0.90401 1.27290 1.14045
 H3880 H 0.92002 1.24566 1.12683
 H3881 H 0.86805 1.22898 1.10015
 H3882 H 0.85187 1.25624 1.11368
 H3883 H 0.88065 1.17659 1.08106
 H3884 H 0.89642 1.14885 1.06814
 H3885 H 0.95077 1.17277 1.08184
 H3886 H 0.93479 1.20016 1.09533
 C3887 C 0.85771 0.75406 0.61255
 C3888 C 0.86503 0.73804 0.60383
 C3889 C 0.88405 0.73308 0.60613
 C3890 C 0.89573 0.74428 0.61743
 C3891 C 0.88839 0.76019 0.62634
 C3892 C 0.86930 0.76528 0.62395
 N3893 N 0.89104 0.71651 0.59708
 N3894 N 0.90855 0.71225 0.59692
 C3895 C 0.91548 0.69548 0.58820
 C3896 C 0.93503 0.69264 0.58685
 C3897 C 0.94227 0.67626 0.57877
 C3898 C 0.93002 0.66228 0.57204
 C3899 C 0.91036 0.66523 0.57337
 C3900 C 0.90315 0.68170 0.58131
 H3901 H 0.84292 0.75747 0.61057
 H3902 H 0.85586 0.72948 0.59523
 H3903 H 0.91048 0.74069 0.61948
 H3904 H 0.89772 0.76861 0.63489
 H3905 H 0.94467 0.70318 0.59207
 H3906 H 0.95746 0.67457 0.57772
 H3907 H 0.90052 0.65464 0.56865
 H3908 H 0.88797 0.68351 0.58232
 C3909 C 0.39529 1.26251 0.63261
 C3910 C 0.40398 1.24683 0.62460
 C3911 C 0.39461 1.23623 0.61105
 C3912 C 0.37637 1.24163 0.60533
 C3913 C 0.36771 1.25751 0.61312
 C3914 C 0.37698 1.26819 0.62701
 N3915 N 0.40399 1.22015 0.60330
 N3916 N 0.39542 1.20819 0.59318
 C3917 C 0.40496 1.19226 0.58533
 C3918 C 0.39422 1.17797 0.57726
 C3919 C 0.40305 1.16216 0.56962
 C3920 C 0.42292 1.16047 0.56961
 C3921 C 0.43368 1.17495 0.57766
 C3922 C 0.42479 1.19066 0.58553
 H3923 H 0.40321 1.27021 0.64302
 H3924 H 0.41808 1.24284 0.62907
 H3925 H 0.36887 1.23366 0.59479
 H3926 H 0.35365 1.26114 0.60834
 H3927 H 0.37893 1.17899 0.57711
 H3928 H 0.39426 1.15113 0.56397
 H3929 H 0.44898 1.17427 0.57768
 H3930 H 0.43342 1.20161 0.59158
 C3931 C 0.35978 0.75660 1.11371
 C3932 C 0.36735 0.74074 1.10499
 C3933 C 0.38551 0.73445 1.10944
 C3934 C 0.39603 0.74404 1.12311
 C3935 C 0.38837 0.75980 1.13213
 C3936 C 0.37015 0.76649 1.12743
 N3937 N 0.39276 0.71821 1.09997
 N3938 N 0.41003 0.71322 1.10093
 C3939 C 0.41693 0.69675 1.09157
 C3940 C 0.43642 0.69334 1.09103
 C3941 C 0.44356 0.67722 1.08235
 C3942 C 0.43128 0.66401 1.07424
 C3943 C 0.41168 0.66759 1.07467
 C3944 C 0.40458 0.68383 1.08318
 H3945 H 0.34565 0.76082 1.10971
 H3946 H 0.35905 0.73338 1.09457
 H3947 H 0.41009 0.73933 1.12688
 H3948 H 0.39695 0.76683 1.14251
 H3949 H 0.44610 0.70323 1.09735
 H3950 H 0.45874 0.67511 1.08200
 H3951 H 0.40178 0.65762 1.06886
 H3952 H 0.38943 0.68609 1.08349
 C3953 C 0.86878 0.73506 0.89520
 C3954 C 0.87664 0.75056 0.90426
 C3955 C 0.88761 0.76344 0.89424
 C3956 C 0.89089 0.76050 0.87495
 C3957 C 0.88318 0.74488 0.86589
 C3958 C 0.87192 0.73206 0.87590
 N3959 N 0.89519 0.77932 0.90395
 N3960 N 0.90362 0.79255 0.89536
 C3961 C 0.91133 0.80842 0.90498
 C3962 C 0.91876 0.82316 0.89435
 C3963 C 0.92649 0.83883 0.90318
 C3964 C 0.92713 0.83999 0.92293
 C3965 C 0.91954 0.82518 0.93361
 C3966 C 0.91168 0.80953 0.92472
 H3967 H 0.86040 0.72536 0.90341
 H3968 H 0.87407 0.75262 0.91913
 H3969 H 0.89938 0.77024 0.86689
 H3970 H 0.88579 0.74303 0.85101
 H3971 H 0.91847 0.82252 0.87914
 H3972 H 0.93180 0.85014 0.89450
 H3973 H 0.91996 0.82554 0.94882
 H3974 H 0.90606 0.79826 0.93326
 C3975 C 0.89551 0.23698 0.36995
 C3976 C 0.90451 0.25256 0.37769
 C3977 C 0.89437 0.26536 0.38867
 C3978 C 0.87504 0.26220 0.39216
 C3979 C 0.86603 0.24648 0.38455
 C3980 C 0.87614 0.23383 0.37317
 N3981 N 0.90406 0.28137 0.39603
 N3982 N 0.89540 0.29458 0.40446
 C3983 C 0.90508 0.31056 0.41189
 C3984 C 0.89440 0.32535 0.41925
 C3985 C 0.90329 0.34116 0.42663
 C3986 C 0.92316 0.34242 0.42700
 C3987 C 0.93390 0.32754 0.41952
 C3988 C 0.92495 0.31175 0.41200
 H3989 H 0.90380 0.22733 0.36155
 H3990 H 0.91942 0.25476 0.37499
 H3991 H 0.86691 0.27186 0.40071
 H3992 H 0.85110 0.24443 0.38729
 H3993 H 0.87909 0.32464 0.41918
 H3994 H 0.89455 0.35250 0.43191
 H3995 H 0.94921 0.32796 0.41977
 H3996 H 0.93354 0.30044 0.40645
 C3997 C 0.36361 0.73918 0.39655
 C3998 C 0.37103 0.75483 0.40575
 C3999 C 0.38499 0.76575 0.39720
 C4000 C 0.39169 0.76069 0.37931
 C4001 C 0.38451 0.74490 0.37017
 C4002 C 0.37026 0.73389 0.37858
 N4003 N 0.39221 0.78177 0.40696
 N4004 N 0.40272 0.79377 0.39882
 C4005 C 0.41035 0.80971 0.40838
 C4006 C 0.41923 0.82366 0.39778
 C4007 C 0.42703 0.83933 0.40656
 C4008 C 0.42639 0.84122 0.42626
 C4009 C 0.41739 0.82716 0.43689
 C4010 C 0.40937 0.81157 0.42804
 H4011 H 0.35283 0.73121 0.40378
 H4012 H 0.36578 0.75853 0.41958
 H4013 H 0.40256 0.76888 0.37242
 H4014 H 0.39009 0.74162 0.35640
 H4015 H 0.41999 0.82243 0.38262
 H4016 H 0.43338 0.85006 0.39784
 H4017 H 0.41680 0.82805 0.45208
 H4018 H 0.40265 0.80088 0.43654
 C4019 C 0.37226 0.23528 0.89525
 C4020 C 0.37999 0.25077 0.90438
 C4021 C 0.39007 0.26425 0.89427
 C4022 C 0.39279 0.26182 0.87481
 C4023 C 0.38522 0.24616 0.86565
 C4024 C 0.37463 0.23287 0.87576
 N4025 N 0.39716 0.28027 0.90410
 N4026 N 0.40464 0.29413 0.89566
 C4027 C 0.41169 0.31013 0.90558
 C4028 C 0.41864 0.32530 0.89525
 C4029 C 0.42585 0.34103 0.90440
 C4030 C 0.42641 0.34185 0.92417
 C4031 C 0.41914 0.32669 0.93456
 C4032 C 0.41184 0.31095 0.92536
 H4033 H 0.36444 0.22517 0.90352
 H4034 H 0.37789 0.25241 0.91938
 H4035 H 0.40064 0.27203 0.86669
 H4036 H 0.38723 0.24470 0.85063
 H4037 H 0.41848 0.32490 0.88003
 H4038 H 0.43095 0.35262 0.89596
 H4039 H 0.41949 0.32683 0.94978
 H4040 H 0.40653 0.29938 0.93367
 C4041 C 1.10993 0.74425 1.14033
 C4042 C 1.10101 0.76007 1.13289
 C4043 C 1.10563 0.76649 1.11492
 C4044 C 1.11966 0.75718 1.10451
 C4045 C 1.12888 0.74152 1.11204
 C4046 C 1.12400 0.73463 1.13000
 N4047 N 1.09595 0.78257 1.10767
 N4048 N 1.09677 0.78712 1.09040
 C4049 C 1.08737 0.80347 1.08335
 C4050 C 1.08623 0.80618 1.06392
 C4051 C 1.07750 0.82220 1.05662
 C4052 C 1.06999 0.83595 1.06871
 C4053 C 1.07111 0.83310 1.08826
 C4054 C 1.07962 0.81696 1.09552
 H4055 H 1.10582 0.73984 1.15428
 H4056 H 1.09029 0.76725 1.14108
 H4057 H 1.12357 0.76204 1.09062
 H4058 H 1.13954 0.73470 1.10350
 H4059 H 1.09211 0.79583 1.05442
 H4060 H 1.07663 0.82383 1.04151
 H4061 H 1.06584 0.84356 1.09798
 H4062 H 1.08048 0.81522 1.11062
 C4063 C 1.10301 0.23759 0.63359
 C4064 C 1.09382 0.25308 0.62572
 C4065 C 1.10292 0.26413 0.61227
 C4066 C 1.12131 0.25939 0.60649
 C4067 C 1.13047 0.24376 0.61413
 C4068 C 1.12152 0.23263 0.62791
 N4069 N 1.09321 0.28004 0.60468
 N4070 N 1.10170 0.29225 0.59477
 C4071 C 1.09206 0.30807 0.58691
 C4072 C 1.10274 0.32249 0.57896
 C4073 C 1.09382 0.33817 0.57123
 C4074 C 1.07394 0.33952 0.57097
 C4075 C 1.06323 0.32495 0.57896
 C4076 C 1.07222 0.30937 0.58694
 H4077 H 1.09535 0.22953 0.64396
 H4078 H 1.07960 0.25659 0.63023
 H4079 H 1.12860 0.26770 0.59600
 H4080 H 1.14464 0.24069 0.60930
 H4081 H 1.11805 0.32167 0.57896
 H4082 H 1.10252 0.34934 0.56565
 H4083 H 1.04792 0.32547 0.57884
 H4084 H 1.06367 0.29829 0.59293
 C4085 C 0.62996 0.73721 0.60418
 C4086 C 0.62214 0.75271 0.59499
 C4087 C 0.61059 0.76532 0.60476
 C4088 C 0.60667 0.76211 0.62389
 C4089 C 0.61433 0.74647 0.63306
 C4090 C 0.62616 0.73394 0.62332
 N4091 N 0.60312 0.78125 0.59496
 N4092 N 0.59426 0.79429 0.60344
 C4093 C 0.58668 0.81020 0.59371
 C4094 C 0.57875 0.82478 0.60422
 C4095 C 0.57116 0.84051 0.59526
 C4096 C 0.57117 0.84185 0.57551
 C4097 C 0.57924 0.82719 0.56496
 C4098 C 0.58697 0.81150 0.57398
 H4099 H 0.63883 0.72771 0.59621
 H4100 H 0.62520 0.75500 0.58024
 H4101 H 0.59773 0.77166 0.63173
 H4102 H 0.61126 0.74440 0.64784
 H4103 H 0.57855 0.82398 0.61943
 H4104 H 0.56545 0.85172 0.60382
 H4105 H 0.57932 0.82774 0.54974
 H4106 H 0.59299 0.80035 0.56555
 C4107 C 0.62736 0.23253 1.10527
 C4108 C 0.61947 0.24803 1.09620
 C4109 C 0.60876 0.26109 1.10627
 C4110 C 0.60559 0.25825 1.12560
 C4111 C 0.61330 0.24255 1.13470
 C4112 C 0.62449 0.22968 1.12464
 N4113 N 0.60150 0.27714 1.09650
 N4114 N 0.59370 0.29081 1.10499
 C4115 C 0.58650 0.30679 1.09506
 C4116 C 0.57957 0.32200 1.10537
 C4117 C 0.57230 0.33775 1.09617
 C4118 C 0.57162 0.33849 1.07639
 C4119 C 0.57882 0.32328 1.06604
 C4120 C 0.58622 0.30755 1.07529
 H4121 H 0.63568 0.22274 1.09707
 H4122 H 0.62193 0.25003 1.08129
 H4123 H 0.59726 0.26816 1.13366
 H4124 H 0.61094 0.24074 1.14963
 H4125 H 0.57985 0.32165 1.12059
 H4126 H 0.56727 0.34940 1.10456
 H4127 H 0.57837 0.32337 1.05082
 H4128 H 0.59150 0.29594 1.06700
 C4129 C 1.25165 1.14258 0.88636
 C4130 C 1.23579 1.13513 0.89536
 C4131 C 1.23157 1.11608 0.89375
 C4132 C 1.24325 1.10449 0.88272
 C4133 C 1.25903 1.11196 0.87354
 C4134 C 1.26347 1.13106 0.87540
 N4135 N 1.21531 1.10892 0.90333
 N4136 N 1.21179 1.09147 0.90427
 C4137 C 1.19530 1.08446 0.91360
 C4138 C 1.19293 1.06508 0.91532
 C4139 C 1.17671 1.05779 0.92382
 C4140 C 1.16247 1.06984 0.93064
 C4141 C 1.16502 1.08933 0.92909
 C4142 C 1.18131 1.09659 0.92069
 H4143 H 1.25454 1.15739 0.88788
 H4144 H 1.22681 1.14421 0.90372
 H4145 H 1.24018 1.08971 0.88119
 H4146 H 1.26792 1.10271 0.86529
 H4147 H 1.20366 1.05561 0.90996
 H4148 H 1.17528 1.04273 0.92503
 H4149 H 1.15420 1.09898 0.93390
 H4150 H 1.18279 1.11164 0.91945
 C4151 C 1.26550 0.60313 0.36637
 C4152 C 1.24987 0.59361 0.37367
 C4153 C 1.23689 0.60289 0.38527
 C4154 C 1.23980 0.62188 0.38965
 C4155 C 1.25553 0.63137 0.38252
 C4156 C 1.26852 0.62211 0.37076
 N4157 N 1.22101 0.59276 0.39254
 N4158 N 1.20780 0.60097 0.40153
 C4159 C 1.19194 0.59114 0.40922
 C4160 C 1.17727 0.60154 0.41732
 C4161 C 1.16172 0.59252 0.42530
 C4162 C 1.16065 0.57282 0.42554
 C4163 C 1.17535 0.56238 0.41721
 C4164 C 1.19088 0.57146 0.40908
 H4165 H 1.27534 0.59554 0.35750
 H4166 H 1.24782 0.57897 0.37024
 H4167 H 1.22999 0.62936 0.39864
 H4168 H 1.25735 0.64601 0.38603
 H4169 H 1.17790 0.61671 0.41740
 H4170 H 1.15045 0.60101 0.43118
 H4171 H 1.17500 0.54720 0.41728
 H4172 H 1.20212 0.56313 0.40293
 C4173 C 0.76643 1.10486 0.36872
 C4174 C 0.75093 1.09546 0.37644
 C4175 C 0.73773 1.10507 0.38749
 C4176 C 0.74036 1.12429 0.39101
 C4177 C 0.75601 1.13369 0.38345
 C4178 C 0.76914 1.12409 0.37212
 N4179 N 0.72184 1.09499 0.39489
 N4180 N 0.70823 1.10320 0.40328
 C4181 C 0.69237 1.09319 0.41082
 C4182 C 0.67730 1.10342 0.41842
 C4183 C 0.66168 1.09422 0.42612
 C4184 C 0.66089 1.07450 0.42653
 C4185 C 0.67599 1.06423 0.41870
 C4186 C 0.69160 1.07349 0.41089
 H4187 H 0.77637 1.09696 0.36025
 H4188 H 0.74913 1.08064 0.37369
 H4189 H 0.73037 1.13202 0.39959
 H4190 H 0.75763 1.14851 0.38624
 H4191 H 0.67765 1.11860 0.41832
 H4192 H 0.65013 1.10259 0.43162
 H4193 H 0.67589 1.04905 0.41892
 H4194 H 0.70310 1.06526 0.40509
 C4195 C 0.76462 0.60286 0.87034
 C4196 C 0.74922 0.59355 0.87828
 C4197 C 0.73609 0.60333 0.88925
 C4198 C 0.73862 0.62261 0.89242
 C4199 C 0.75413 0.63192 0.88462
 C4200 C 0.76723 0.62215 0.87342
 N4201 N 0.72038 0.59338 0.89702
 N4202 N 0.70695 0.60181 0.90544
 C4203 C 0.69128 0.59196 0.91341
 C4204 C 0.67620 0.60232 0.92078
 C4205 C 0.66072 0.59323 0.92878
 C4206 C 0.66015 0.57352 0.92976
 C4207 C 0.67529 0.56313 0.92223
 C4208 C 0.69074 0.57227 0.91409
 H4209 H 0.77458 0.59488 0.86197
 H4210 H 0.74744 0.57868 0.87582
 H4211 H 0.72865 0.63046 0.90091
 H4212 H 0.75569 0.64680 0.88714
 H4213 H 0.67643 0.61749 0.92023
 H4214 H 0.64908 0.60164 0.93405
 H4215 H 0.67531 0.54796 0.92290
 H4216 H 0.70230 0.56397 0.90851
 C4217 C 1.25231 0.88582 1.14072
 C4218 C 1.23631 0.89457 1.13324
 C4219 C 1.23168 0.89229 1.11429
 C4220 C 1.24308 0.88083 1.10285
 C4221 C 1.25900 0.87186 1.11037
 C4222 C 1.26384 0.87441 1.12935
 N4223 N 1.21528 0.90164 1.10713
 N4224 N 1.21137 0.90208 1.08968
 C4225 C 1.19470 0.91120 1.08279
 C4226 C 1.19193 0.91263 1.06338
 C4227 C 1.17554 0.92101 1.05626
 C4228 C 1.16154 0.92798 1.06851
 C4229 C 1.16447 0.92667 1.08801
 C4230 C 1.18092 0.91842 1.09510
 H4231 H 1.25553 0.88786 1.15545
 H4232 H 1.22755 0.90327 1.14221
 H4233 H 1.23969 0.87878 1.08816
 H4234 H 1.26767 0.86324 1.10126
 H4235 H 1.20248 0.90717 1.05376
 H4236 H 1.17381 0.92204 1.04116
 H4237 H 1.15384 0.93159 1.09782
 H4238 H 1.18270 0.91739 1.11019
 C4239 C 1.25386 0.38387 0.64302
 C4240 C 1.23780 0.39261 0.63557
 C4241 C 1.23325 0.39059 0.61655
 C4242 C 1.24488 0.37943 0.60502
 C4243 C 1.26087 0.37051 0.61250
 C4244 C 1.26561 0.37275 0.63157
 N4245 N 1.21675 0.39990 0.60942
 N4246 N 1.21279 0.40040 0.59197
 C4247 C 1.19610 0.40953 0.58501
 C4248 C 1.19344 0.41101 0.56558
 C4249 C 1.17715 0.41955 0.55833
 C4250 C 1.16310 0.42665 0.57046
 C4251 C 1.16590 0.42522 0.59000
 C4252 C 1.18225 0.41680 0.59722
 H4253 H 1.25695 0.38572 0.65780
 H4254 H 1.22890 0.40108 0.64463
 H4255 H 1.24160 0.37759 0.59027
 H4256 H 1.26967 0.36214 0.60328
 H4257 H 1.20403 0.40553 0.55602
 H4258 H 1.17560 0.42066 0.54323
 H4259 H 1.15525 0.43024 0.59975
 H4260 H 1.18392 0.41574 0.61231
 C4261 C 0.75373 0.88770 0.64363
 C4262 C 0.73776 0.89692 0.63660
 C4263 C 0.73288 0.89530 0.61763
 C4264 C 0.74406 0.88410 0.60571
 C4265 C 0.75992 0.87469 0.61277
 C4266 C 0.76497 0.87648 0.63179
 N4267 N 0.71642 0.90492 0.61089
 N4268 N 0.71243 0.90584 0.59348
 C4269 C 0.69574 0.91505 0.58673
 C4270 C 0.69309 0.91684 0.56733
 C4271 C 0.67663 0.92509 0.56024
 C4272 C 0.66239 0.93157 0.57248
 C4273 C 0.66523 0.93000 0.59200
 C4274 C 0.68178 0.92185 0.59907
 H4275 H 0.75711 0.88918 0.65839
 H4276 H 0.72919 0.90542 0.64594
 H4277 H 0.74050 0.88256 0.59100
 H4278 H 0.76836 0.86626 0.60327
 H4279 H 0.70378 0.91170 0.55768
 H4280 H 0.67501 0.92635 0.54515
 H4281 H 0.65444 0.93459 0.60181
 H4282 H 0.68347 0.92054 0.61414
 C4283 C 0.75452 0.38465 1.14219
 C4284 C 0.73831 0.39322 1.13490
 C4285 C 0.73359 0.39111 1.11595
 C4286 C 0.74519 0.38005 1.10430
 C4287 C 0.76134 0.37128 1.11163
 C4288 C 0.76623 0.37360 1.13064
 N4289 N 0.71692 0.40024 1.10901
 N4290 N 0.71270 0.40061 1.09163
 C4291 C 0.69583 0.40958 1.08491
 C4292 C 0.69274 0.41078 1.06552
 C4293 C 0.67623 0.41906 1.05853
 C4294 C 0.66239 0.42620 1.07086
 C4295 C 0.66563 0.42512 1.09035
 C4296 C 0.68220 0.41693 1.09732
 H4297 H 0.75772 0.38654 1.15694
 H4298 H 0.72944 0.40163 1.14404
 H4299 H 0.74177 0.37815 1.08959
 H4300 H 0.77012 0.36295 1.10234
 H4301 H 0.70316 0.40524 1.05582
 H4302 H 0.67432 0.41991 1.04345
 H4303 H 0.65514 0.43018 1.10024
 H4304 H 0.68421 0.41609 1.11238
 C4305 C 0.74904 1.14102 1.11440
 C4306 C 0.76479 1.13360 1.10515
 C4307 C 0.76914 1.11453 1.10671
 C4308 C 0.75774 1.10292 1.11794
 C4309 C 0.74209 1.11038 1.12741
 C4310 C 0.73752 1.12948 1.12559
 N4311 N 0.78529 1.10741 1.09688
 N4312 N 0.78880 1.08995 1.09572
 C4313 C 0.80523 1.08303 1.08619
 C4314 C 0.80757 1.06368 1.08408
 C4315 C 0.82378 1.05648 1.07542
 C4316 C 0.83802 1.06859 1.06885
 C4317 C 0.83548 1.08805 1.07077
 C4318 C 0.81921 1.09522 1.07931
 H4319 H 0.74600 1.15584 1.11291
 H4320 H 0.77357 1.14269 1.09662
 H4321 H 0.76092 1.08813 1.11943
 H4322 H 0.73339 1.10113 1.13583
 H4323 H 0.79685 1.05416 1.08927
 H4324 H 0.82522 1.04143 1.07393
 H4325 H 0.84632 1.09773 1.06616
 H4326 H 0.81776 1.11026 1.08086
 C4327 C 0.74811 0.64147 0.61856
 C4328 C 0.76408 0.63397 0.60979
 C4329 C 0.76803 0.61481 0.61105
 C4330 C 0.75601 0.60316 0.62163
 C4331 C 0.74009 0.61071 0.63063
 C4332 C 0.73587 0.62991 0.62897
 N4333 N 0.78432 0.60767 0.60144
 N4334 N 0.78784 0.59023 0.60005
 C4335 C 0.80436 0.58349 0.59050
 C4336 C 0.80701 0.56416 0.58848
 C4337 C 0.82326 0.55716 0.57969
 C4338 C 0.83724 0.56945 0.57287
 C4339 C 0.83438 0.58888 0.57466
 C4340 C 0.81808 0.59585 0.58336
 H4341 H 0.74541 0.65636 0.61724
 H4342 H 0.77331 0.64308 0.60178
 H4343 H 0.75889 0.58829 0.62288
 H4344 H 0.73087 0.60147 0.63849
 H4345 H 0.79650 0.55450 0.59382
 H4346 H 0.82493 0.54213 0.57829
 H4347 H 0.84498 0.59869 0.56982
 H4348 H 0.81638 0.61087 0.58478
 C4349 C 0.24676 1.14385 0.61623
 C4350 C 0.26243 1.13646 0.60678
 C4351 C 0.26656 1.11732 0.60784
 C4352 C 0.25501 1.10558 0.61883
 C4353 C 0.23942 1.11300 0.62846
 C4354 C 0.23503 1.13219 0.62710
 N4355 N 0.28260 1.11024 0.59773
 N4356 N 0.28608 1.09278 0.59637
 C4357 C 0.30232 1.08580 0.58651
 C4358 C 0.30477 1.06642 0.58479
 C4359 C 0.32084 1.05911 0.57596
 C4360 C 0.33487 1.07112 0.56877
 C4361 C 0.33217 1.09062 0.57016
 C4362 C 0.31603 1.09791 0.57894
 H4363 H 0.24393 1.15873 0.61509
 H4364 H 0.27129 1.14566 0.59847
 H4365 H 0.25801 1.09073 0.61995
 H4366 H 0.23061 1.10364 0.63663
 H4367 H 0.29426 1.05695 0.59048
 H4368 H 0.32237 1.04404 0.57487
 H4369 H 0.34281 1.10024 0.56500
 H4370 H 0.31447 1.11296 0.58013
 C4371 C 0.23462 0.63151 1.10452
 C4372 C 0.25040 0.62408 1.09529
 C4373 C 0.26371 0.61340 1.10515
 C4374 C 0.26091 0.60995 1.12444
 C4375 C 0.24501 0.61724 1.13367
 C4376 C 0.23177 0.62825 1.12383
 N4377 N 0.27987 0.60626 1.09526
 N4378 N 0.29342 0.59800 1.10367
 C4379 C 0.30955 0.59071 1.09384
 C4380 C 0.32438 0.58295 1.10428
 C4381 C 0.34020 0.57540 1.09524
 C4382 C 0.34143 0.57530 1.07548
 C4383 C 0.32661 0.58335 1.06500
 C4384 C 0.31079 0.59100 1.07410
 H4385 H 0.22458 0.63969 1.09644
 H4386 H 0.25234 0.62676 1.08042
 H4387 H 0.27099 0.60165 1.13236
 H4388 H 0.24327 0.61455 1.14856
 H4389 H 0.32366 0.58277 1.11949
 H4390 H 0.35155 0.56973 1.10376
 H4391 H 0.32708 0.58339 1.04978
 H4392 H 0.29947 0.59692 1.06572
 C4393 C 0.74649 0.85796 0.88665
 C4394 C 0.76264 0.86527 0.89523
 C4395 C 0.76740 0.88415 0.89290
 C4396 C 0.75585 0.89571 0.88170
 C4397 C 0.73980 0.88838 0.87295
 C4398 C 0.73493 0.86942 0.87535
 N4399 N 0.78408 0.89117 0.90187
 N4400 N 0.78815 0.90855 0.90200
 C4401 C 0.80500 0.91553 0.91068
 C4402 C 0.80769 0.93492 0.91184
 C4403 C 0.82414 0.94219 0.91989
 C4404 C 0.83832 0.93014 0.92681
 C4405 C 0.83552 0.91064 0.92566
 C4406 C 0.81900 0.90340 0.91774
 H4407 H 0.74324 0.84328 0.88865
 H4408 H 0.77147 0.85619 0.90375
 H4409 H 0.75927 0.91035 0.87963
 H4410 H 0.73111 0.89762 0.86449
 H4411 H 0.79698 0.94441 0.90650
 H4412 H 0.82571 0.95726 0.92079
 H4413 H 0.84627 0.90094 0.93053
 H4414 H 0.81731 0.88834 0.91690
 C4415 C 0.74881 0.35887 0.38143
 C4416 C 0.76457 0.36657 0.39028
 C4417 C 0.76799 0.38583 0.38938
 C4418 C 0.75560 0.39739 0.37906
 C4419 C 0.73986 0.38965 0.37000
 C4420 C 0.73618 0.37033 0.37130
 N4421 N 0.78405 0.39315 0.39915
 N4422 N 0.78723 0.41063 0.40069
 C4423 C 0.80348 0.41756 0.41050
 C4424 C 0.80579 0.43693 0.41246
 C4425 C 0.82171 0.44413 0.42156
 C4426 C 0.83571 0.43203 0.42880
 C4427 C 0.83319 0.41256 0.42704
 C4428 C 0.81723 0.40538 0.41800
 H4429 H 0.74658 0.34390 0.38249
 H4430 H 0.77408 0.35751 0.39809
 H4431 H 0.75803 0.41233 0.37808
 H4432 H 0.73036 0.39884 0.36237
 H4433 H 0.79527 0.44646 0.40683
 H4434 H 0.82310 0.45918 0.42289
 H4435 H 0.84382 0.40287 0.43218
 H4436 H 0.81580 0.39034 0.41664
 C4437 C 0.24738 0.85961 0.38205
 C4438 C 0.26336 0.86710 0.39068
 C4439 C 0.26736 0.88620 0.38913
 C4440 C 0.25540 0.89779 0.37837
 C4441 C 0.23945 0.89025 0.36951
 C4442 C 0.23516 0.87112 0.37151
 N4443 N 0.28360 0.89334 0.39872
 N4444 N 0.28720 0.91076 0.39985
 C4445 C 0.30363 0.91748 0.40948
 C4446 C 0.30645 0.93681 0.41104
 C4447 C 0.32260 0.94377 0.41990
 C4448 C 0.33632 0.93146 0.42728
 C4449 C 0.33328 0.91203 0.42597
 C4450 C 0.31709 0.90510 0.41718
 H4451 H 0.24465 0.84477 0.38362
 H4452 H 0.27256 0.85803 0.39882
 H4453 H 0.25831 0.91261 0.37689
 H4454 H 0.23025 0.89944 0.36152
 H4455 H 0.29615 0.94650 0.40526
 H4456 H 0.32440 0.95881 0.42091
 H4457 H 0.34369 0.90218 0.43125
 H4458 H 0.31525 0.89007 0.41614
 C4459 C 0.24752 0.35809 0.88760
 C4460 C 0.26345 0.36566 0.89638
 C4461 C 0.26802 0.38460 0.89400
 C4462 C 0.25645 0.39594 0.88261
 C4463 C 0.24062 0.38835 0.87368
 C4464 C 0.23596 0.36934 0.87609
 N4465 N 0.28455 0.39185 0.90305
 N4466 N 0.28856 0.40925 0.90291
 C4467 C 0.30530 0.41643 0.91165
 C4468 C 0.30783 0.43585 0.91268
 C4469 C 0.32411 0.44332 0.92092
 C4470 C 0.33828 0.43143 0.92815
 C4471 C 0.33567 0.41190 0.92703
 C4472 C 0.31932 0.40447 0.91893
 H4473 H 0.24444 0.34337 0.88963
 H4474 H 0.27228 0.35675 0.90507
 H4475 H 0.25970 0.41062 0.88052
 H4476 H 0.23194 0.39746 0.86507
 H4477 H 0.29712 0.44523 0.90713
 H4478 H 0.32552 0.45840 0.92176
 H4479 H 0.34644 0.40231 0.93209
 H4480 H 0.31777 0.38939 0.91815
   
