data_POSCAR
  _audit_creation_date              2014-09-24
  _audit_creation_method            'ToBaCCo'
  _symmetry_space_group_name_H-M    'P1'
  _symmetry_Int_Tables_number       1
  _symmetry_cell_setting            triclinic
  loop_
  _symmetry_equiv_pos_as_xyz
 x,y,z
_cell_length_a 62.4120
_cell_length_b 62.4254
_cell_length_c 62.4727
_cell_angle_alpha 90.013600
_cell_angle_beta 90.009700
_cell_angle_gamma 90.013000
loop_
  _atom_site_label
  _atom_site_type_symbol
  _atom_site_fract_x
  _atom_site_fract_y
  _atom_site_fract_z
C1 C 0.19141 0.21169 0.22236
 C2 C 0.19485 0.22555 0.20507
 C3 C 0.21215 0.22212 0.19120
 C4 C 0.22603 0.20482 0.19464
 C5 C 0.22261 0.19096 0.21194
 C6 C 0.20530 0.19440 0.22579
 H7 H 0.18410 0.23894 0.20240
 H8 H 0.23942 0.20216 0.18391
 H9 H 0.20264 0.18366 0.23918
 C10 C 0.69136 0.71254 0.72249
 C11 C 0.70521 0.69520 0.72584
 C12 C 0.72250 0.69177 0.71196
 C13 C 0.72594 0.70569 0.69471
 C14 C 0.71211 0.72304 0.69134
 C15 C 0.69482 0.72646 0.70524
 H16 H 0.70254 0.68442 0.73919
 H17 H 0.73932 0.70304 0.68396
 H18 H 0.68410 0.73988 0.70263
 C19 C 0.30809 0.78830 0.72277
 C20 C 0.30467 0.77440 0.70551
 C21 C 0.28737 0.77776 0.69163
 C22 C 0.27346 0.79504 0.69502
 C23 C 0.27686 0.80898 0.71229
 C24 C 0.29418 0.80559 0.72617
 H25 H 0.31544 0.76102 0.70288
 H26 H 0.26008 0.79761 0.68423
 H27 H 0.29687 0.81634 0.73956
 C28 C 0.80911 0.28764 0.22278
 C29 C 0.79518 0.30492 0.22619
 C30 C 0.77787 0.30832 0.21232
 C31 C 0.77449 0.29444 0.19502
 C32 C 0.78839 0.27716 0.19158
 C33 C 0.80569 0.27376 0.20546
 H34 H 0.79776 0.31570 0.23958
 H35 H 0.76109 0.29708 0.18427
 H36 H 0.81644 0.26036 0.20276
 C37 C 0.80874 0.71246 0.27757
 C38 C 0.79487 0.69513 0.27422
 C39 C 0.77758 0.69172 0.28812
 C40 C 0.77418 0.70565 0.30537
 C41 C 0.78804 0.72299 0.30873
 C42 C 0.80532 0.72638 0.29483
 H43 H 0.79751 0.68435 0.26087
 H44 H 0.76081 0.70302 0.31614
 H45 H 0.81606 0.73980 0.29742
 C46 C 0.30921 0.21198 -0.22299
 C47 C 0.29531 0.19467 -0.22642
 C48 C 0.27800 0.19123 -0.21257
 C49 C 0.27457 0.20511 -0.19528
 C50 C 0.28844 0.22242 -0.19183
 C51 C 0.30575 0.22585 -0.20568
 H52 H 0.29793 0.18388 -0.23979
 H53 H 0.26116 0.20245 -0.18456
 H54 H 0.31647 0.23927 -0.20296
 C55 C 0.69084 0.28751 -0.22280
 C56 C 0.70476 0.30481 -0.22623
 C57 C 0.72206 0.30825 -0.21236
 C58 C 0.72547 0.29439 -0.19506
 C59 C 0.71159 0.27710 -0.19161
 C60 C 0.69428 0.27366 -0.20548
 H61 H 0.70215 0.31558 -0.23961
 H62 H 0.73887 0.29706 -0.18432
 H63 H 0.68355 0.26025 -0.20276
 C64 C 0.19171 0.78810 0.27751
 C65 C 0.19506 0.77423 0.29481
 C66 C 0.21233 0.77761 0.30873
 C67 C 0.22627 0.79488 0.30534
 C68 C 0.22295 0.80878 0.28803
 C69 C 0.20565 0.80537 0.27412
 H70 H 0.18427 0.76087 0.29744
 H71 H 0.23964 0.79746 0.31616
 H72 H 0.20301 0.81609 0.26070
 C73 C 0.46203 0.44123 0.47291
 C74 C 0.47590 0.44464 0.45561
 C75 C 0.47247 0.46191 0.44171
 C76 C 0.45516 0.47578 0.44512
 C77 C 0.44128 0.47239 0.46241
 C78 C 0.44472 0.45511 0.47630
 H79 H 0.48930 0.43389 0.45297
 H80 H 0.45250 0.48915 0.43436
 H81 H 0.43398 0.45247 0.48969
 C82 C -0.03817 -0.05798 0.97241
 C83 C -0.02430 -0.05458 0.95512
 C84 C -0.02772 -0.03731 0.94121
 C85 C -0.04503 -0.02344 0.94459
 C86 C -0.05894 -0.02681 0.96189
 C87 C -0.05549 -0.04410 0.97580
 H88 H -0.01090 -0.06532 0.95249
 H89 H -0.04764 -0.01008 0.93379
 H90 H -0.06621 -0.04678 0.98921
 C91 C 1.03785 0.55869 0.97235
 C92 C 1.02395 0.55525 0.95507
 C93 C 1.02734 0.53793 0.94122
 C94 C 1.04463 0.52404 0.94465
 C95 C 1.05853 0.52746 0.96192
 C96 C 1.05514 0.54479 0.97577
 H97 H 1.01057 0.56601 0.95242
 H98 H 1.04725 0.51063 0.93393
 H99 H 1.06590 0.54745 0.98914
 C100 C 0.53817 0.05828 0.47280
 C101 C 0.52429 0.05482 0.45551
 C102 C 0.52774 0.03754 0.44163
 C103 C 0.54507 0.02370 0.44503
 C104 C 0.55898 0.02713 0.46233
 C105 C 0.55550 0.04444 0.47621
 H106 H 0.51087 0.06554 0.45287
 H107 H 0.54770 0.01033 0.43425
 H108 H 0.56623 0.04716 0.48961
 C109 C -0.03829 0.05875 0.52735
 C110 C -0.05563 0.04489 0.52394
 C111 C -0.05907 0.02756 0.53778
 C112 C -0.04514 0.02411 0.55505
 C113 C -0.02781 0.03796 0.55847
 C114 C -0.02440 0.05527 0.54462
 H115 H -0.06637 0.04763 0.51055
 H116 H -0.04775 0.01071 0.56581
 H117 H -0.01098 0.06600 0.54726
 C118 C 0.46230 0.55880 0.02752
 C119 C 0.44502 0.54488 0.02410
 C120 C 0.44163 0.52756 0.03794
 C121 C 0.45552 0.52415 0.05522
 C122 C 0.47281 0.53806 0.05866
 C123 C 0.47619 0.55538 0.04481
 H124 H 0.43427 0.54753 0.01072
 H125 H 0.45290 0.51075 0.06594
 H126 H 0.48957 0.56615 0.04747
 C127 C 0.53791 -0.05914 0.02733
 C128 C 0.55522 -0.04523 0.02395
 C129 C 0.55867 -0.02797 0.03787
 C130 C 0.54480 -0.02460 0.05518
 C131 C 0.52749 -0.03848 0.05858
 C132 C 0.52405 -0.05574 0.04466
 H133 H 0.56599 -0.04780 0.01056
 H134 H 0.54747 -0.01124 0.06596
 H135 H 0.51062 -0.06646 0.04734
 C136 C 1.03812 0.44179 0.52713
 C137 C 1.05543 0.45569 0.52375
 C138 C 1.05887 0.47297 0.53766
 C139 C 1.04497 0.47633 0.55497
 C140 C 1.02766 0.46244 0.55835
 C141 C 1.02425 0.44518 0.54443
 H142 H 1.06615 0.45302 0.51034
 H143 H 1.04757 0.48969 0.56578
 H144 H 1.01086 0.43442 0.54705
 C145 C 0.40780 0.00934 0.22138
 H146 H 0.40866 0.02387 0.23079
 C147 C 0.42177 0.00633 0.20418
 H148 H 0.43340 0.01860 0.20024
 C149 C 0.39182 -0.02458 0.21517
 H150 H 0.38038 -0.03674 0.21969
 C151 C 0.40551 -0.02823 0.19785
 H152 H 0.40441 -0.04309 0.18896
 N153 N 0.39304 -0.00591 0.22638
 C154 C 0.34228 0.02817 0.26024
 H155 H 0.34142 0.01877 0.27477
 C156 C 0.32832 0.04538 0.25721
 H157 H 0.31669 0.04934 0.26946
 C158 C 0.35827 0.03433 0.22635
 H159 H 0.36970 0.02979 0.21421
 C160 C 0.34459 0.05166 0.22268
 H161 H 0.34569 0.06054 0.20782
 Zn162 Zn 0.37504 -0.00071 0.25022
 N163 N 0.35704 0.02314 0.24501
 C164 C 0.39182 0.02317 0.28526
 N165 N 0.39304 0.00450 0.27406
 C166 C 0.40780 -0.01075 0.27907
 C167 C 0.42178 -0.00771 0.29626
 C168 C 0.40551 0.02685 0.30257
 C169 C 0.34228 -0.02959 0.24017
 C170 C 0.32830 -0.04680 0.24318
 C171 C 0.34456 -0.05310 0.27772
 C172 C 0.35825 -0.03578 0.27407
 N173 N 0.35704 -0.02458 0.25541
 H174 H 0.38038 0.03532 0.28073
 H175 H 0.40865 -0.02528 0.26968
 H176 H 0.43341 -0.01997 0.30021
 H177 H 0.40442 0.04172 0.31144
 H178 H 0.34143 -0.02020 0.22564
 H179 H 0.31667 -0.05075 0.23093
 H180 H 0.34565 -0.06199 0.29258
 H181 H 0.36969 -0.03125 0.28621
 C182 C 0.32953 0.05725 0.23828
 C183 C 0.42056 -0.01260 0.19229
 C184 C 0.32950 -0.05868 0.26211
 C185 C 0.42058 0.01123 0.30814
 C186 C 0.09227 -0.01030 0.72089
 H187 H 0.09138 -0.02481 0.73033
 C188 C 0.07828 -0.00729 0.70370
 H189 H 0.06660 -0.01953 0.69980
 C190 C 0.10834 0.02355 0.71460
 H191 H 0.11983 0.03569 0.71908
 C192 C 0.09465 0.02721 0.69729
 H193 H 0.09578 0.04205 0.68837
 N194 N 0.10708 0.00492 0.72585
 C195 C 0.15775 -0.02916 0.75985
 H196 H 0.15863 -0.01970 0.77434
 C197 C 0.17169 -0.04640 0.75689
 H198 H 0.18332 -0.05032 0.76915
 C199 C 0.14175 -0.03544 0.72598
 H200 H 0.13031 -0.03094 0.71382
 C201 C 0.15540 -0.05280 0.72238
 H202 H 0.15429 -0.06174 0.70755
 Zn203 Zn 0.12507 -0.00024 0.74971
 N204 N 0.14300 -0.02417 0.74460
 C205 C 0.10821 -0.02393 0.78483
 N206 N 0.10705 -0.00530 0.77357
 C207 C 0.09233 0.01001 0.77851
 C208 C 0.07834 0.00710 0.79571
 C209 C 0.09450 -0.02749 0.80215
 C210 C 0.15791 0.02850 0.73957
 C211 C 0.17194 0.04569 0.74253
 C212 C 0.15568 0.05217 0.77704
 C213 C 0.14195 0.03486 0.77344
 N214 N 0.14314 0.02359 0.75482
 H215 H 0.11962 -0.03613 0.78036
 H216 H 0.09153 0.02451 0.76906
 H217 H 0.06675 0.01941 0.79960
 H218 H 0.09555 -0.04232 0.81108
 H219 H 0.15874 0.01905 0.72508
 H220 H 0.18358 0.04956 0.73027
 H221 H 0.15461 0.06112 0.79187
 H222 H 0.13050 0.03041 0.78560
 C223 C 0.17046 -0.05834 0.73800
 C224 C 0.07953 0.01162 0.69178
 C225 C 0.17076 0.05765 0.76142
 C226 C 0.07949 -0.01180 0.80765
 C227 C 0.59246 0.48982 0.22139
 H228 H 0.59158 0.47528 0.23077
 C229 C 0.57851 0.49285 0.20417
 H230 H 0.56688 0.48060 0.20019
 C231 C 0.60846 0.52374 0.21526
 H232 H 0.61990 0.53589 0.21982
 C233 C 0.59481 0.52742 0.19792
 H234 H 0.59593 0.54229 0.18906
 N235 N 0.60721 0.50506 0.22644
 C236 C 0.65790 0.47096 0.26039
 H237 H 0.65874 0.48036 0.27492
 C238 C 0.67188 0.45375 0.25739
 H239 H 0.68349 0.44980 0.26966
 C240 C 0.64197 0.46478 0.22647
 H241 H 0.63055 0.46932 0.21431
 C242 C 0.65565 0.44745 0.22283
 H243 H 0.65457 0.43857 0.20797
 Zn244 Zn 0.62518 0.49985 0.25031
 N245 N 0.64317 0.47598 0.24514
 C246 C 0.60833 0.47599 0.28532
 N247 N 0.60714 0.49466 0.27412
 C248 C 0.59238 0.50992 0.27911
 C249 C 0.57838 0.50691 0.29629
 C250 C 0.59462 0.47234 0.30261
 C251 C 0.65797 0.52870 0.24032
 C252 C 0.67194 0.54592 0.24335
 C253 C 0.65561 0.55227 0.27785
 C254 C 0.64194 0.53493 0.27418
 N255 N 0.64318 0.52371 0.25554
 H256 H 0.61977 0.46383 0.28081
 H257 H 0.59155 0.52445 0.26972
 H258 H 0.56676 0.51917 0.30023
 H259 H 0.59570 0.45747 0.31150
 H260 H 0.65885 0.51928 0.22581
 H261 H 0.68359 0.54986 0.23111
 H262 H 0.65449 0.56117 0.29269
 H263 H 0.63047 0.53041 0.28631
 C264 C 0.67069 0.44187 0.23846
 C265 C 0.57975 0.51180 0.19231
 C266 C 0.67070 0.55783 0.26226
 C267 C 0.57957 0.48796 0.30817
 C268 C 0.90755 0.50996 0.72091
 H269 H 0.90838 0.52448 0.73034
 C270 C 0.92155 0.50699 0.70374
 H271 H 0.93319 0.51926 0.69984
 C272 C 0.89159 0.47605 0.71462
 H273 H 0.88015 0.46388 0.71910
 C274 C 0.90531 0.47243 0.69733
 H275 H 0.90423 0.45758 0.68841
 N276 N 0.89279 0.49470 0.72586
 C277 C 0.84197 0.52868 0.75974
 H278 H 0.84110 0.51925 0.77424
 C279 C 0.82801 0.54590 0.75674
 H280 H 0.81637 0.54983 0.76899
 C281 C 0.85800 0.53495 0.72588
 H282 H 0.86945 0.53044 0.71374
 C283 C 0.84432 0.55228 0.72224
 H284 H 0.84545 0.56121 0.70741
 Zn285 Zn 0.87475 0.49985 0.74969
 N286 N 0.85675 0.52370 0.74451
 C287 C 0.89149 0.52369 0.78478
 N288 N 0.89273 0.50503 0.77356
 C289 C 0.90749 0.48978 0.77856
 C290 C 0.92145 0.49279 0.79578
 C291 C 0.90516 0.52734 0.80211
 C292 C 0.84202 0.47095 0.73957
 C293 C 0.82804 0.45374 0.74255
 C294 C 0.84427 0.44742 0.77711
 C295 C 0.85796 0.46475 0.77348
 N296 N 0.85676 0.47597 0.75482
 H297 H 0.88005 0.53584 0.78026
 H298 H 0.90836 0.47526 0.76915
 H299 H 0.93308 0.48053 0.79972
 H300 H 0.90406 0.54220 0.81101
 H301 H 0.84118 0.48036 0.72505
 H302 H 0.81642 0.44979 0.73029
 H303 H 0.84535 0.43853 0.79196
 H304 H 0.86938 0.46928 0.78564
 C305 C 0.82925 0.55783 0.73784
 C306 C 0.92037 0.48807 0.69182
 C307 C 0.82923 0.44185 0.76148
 C308 C 0.92022 0.51172 0.80767
 C309 C 0.22121 0.40749 0.00989
 H310 H 0.23062 0.40834 0.02441
 C311 C 0.20399 0.42146 0.00689
 H312 H 0.20004 0.43308 0.01916
 C313 C 0.21501 0.39155 -0.02403
 H314 H 0.21953 0.38012 -0.03618
 C315 C 0.19767 0.40523 -0.02766
 H316 H 0.18878 0.40414 -0.04252
 N317 N 0.22622 0.39275 -0.00537
 C318 C 0.26020 0.34201 0.02861
 H319 H 0.27473 0.34118 0.01921
 C320 C 0.25720 0.32802 0.04579
 H321 H 0.26947 0.31641 0.04973
 C322 C 0.22626 0.35794 0.03482
 H323 H 0.21409 0.36937 0.03031
 C324 C 0.22261 0.34424 0.05212
 H325 H 0.20775 0.34532 0.06100
 Zn326 Zn 0.25010 0.37478 -0.00020
 N327 N 0.24493 0.35675 0.02362
 C328 C 0.28518 0.39157 0.02365
 N329 N 0.27396 0.39280 0.00500
 C330 C 0.27894 0.40758 -0.01022
 C331 C 0.29614 0.42157 -0.00720
 C332 C 0.30250 0.40527 0.02731
 C333 C 0.24007 0.34204 -0.02910
 C334 C 0.24311 0.32809 -0.04631
 C335 C 0.27766 0.34440 -0.05260
 C336 C 0.27399 0.35806 -0.03527
 N337 N 0.25531 0.35681 -0.02407
 H338 H 0.28068 0.38011 0.03578
 H339 H 0.26952 0.40844 -0.02473
 H340 H 0.30007 0.43321 -0.01944
 H341 H 0.31141 0.40417 0.04216
 H342 H 0.22554 0.34116 -0.01971
 H343 H 0.23086 0.31645 -0.05028
 H344 H 0.29253 0.34553 -0.06147
 H345 H 0.28613 0.36951 -0.03072
 C346 C 0.23825 0.32920 0.05768
 C347 C 0.19210 0.42027 -0.01204
 C348 C 0.26206 0.32933 -0.05819
 C349 C 0.30805 0.42035 0.01172
 C350 C 0.72139 0.09198 -0.01009
 H351 H 0.73077 0.09115 -0.02463
 C352 C 0.70420 0.07798 -0.00706
 H353 H 0.70024 0.06635 -0.01932
 C354 C 0.71523 0.10792 0.02383
 H355 H 0.71977 0.11936 0.03597
 C356 C 0.69793 0.09421 0.02750
 H357 H 0.68906 0.09529 0.04237
 N358 N 0.72641 0.10673 0.00515
 C359 C 0.76017 0.15755 -0.02894
 H360 H 0.77473 0.15843 -0.01958
 C361 C 0.75709 0.17152 -0.04613
 H362 H 0.76933 0.18316 -0.05011
 C363 C 0.72625 0.14153 -0.03505
 H364 H 0.71412 0.13007 -0.03050
 C365 C 0.72252 0.15520 -0.05235
 H366 H 0.70763 0.15408 -0.06120
 Zn367 Zn 0.75024 0.12478 -0.00008
 N368 N 0.74495 0.14277 -0.02390
 C369 C 0.78528 0.10806 -0.02402
 N370 N 0.77412 0.10682 -0.00534
 C371 C 0.77918 0.09207 0.00988
 C372 C 0.79640 0.07812 0.00682
 C373 C 0.80262 0.09441 -0.02772
 C374 C 0.74020 0.15749 0.02882
 C375 C 0.74323 0.17145 0.04603
 C376 C 0.77785 0.15525 0.05225
 C377 C 0.77417 0.14158 0.03492
 N378 N 0.75546 0.14277 0.02377
 H379 H 0.78071 0.11950 -0.03614
 H380 H 0.76981 0.09119 0.02442
 H381 H 0.80039 0.06649 0.01906
 H382 H 0.81148 0.09552 -0.04259
 H383 H 0.72564 0.15833 0.01946
 H384 H 0.73096 0.18305 0.05002
 H385 H 0.79274 0.15417 0.06109
 H386 H 0.78633 0.13017 0.03036
 C387 C 0.73811 0.17028 -0.05796
 C388 C 0.69234 0.07916 0.01189
 C389 C 0.76221 0.17027 0.05787
 C390 C 0.80825 0.07935 -0.01213
 C391 C 0.22072 0.59218 0.49012
 H392 H 0.23016 0.59133 0.47562
 C393 C 0.20351 0.57820 0.49309
 H394 H 0.19958 0.56657 0.48082
 C395 C 0.21446 0.60814 0.52401
 H396 H 0.21896 0.61958 0.53617
 C397 C 0.19712 0.59445 0.52762
 H398 H 0.18820 0.59553 0.54246
 N399 N 0.22570 0.60693 0.50537
 C400 C 0.25973 0.65769 0.47144
 H401 H 0.27424 0.65853 0.48088
 C402 C 0.25676 0.67167 0.45425
 H403 H 0.26904 0.68329 0.45034
 C404 C 0.22580 0.64172 0.46515
 H405 H 0.21363 0.63029 0.46964
 C406 C 0.22220 0.65542 0.44784
 H407 H 0.20735 0.65433 0.43891
 Zn408 Zn 0.24959 0.62493 0.50025
 N409 N 0.24445 0.64293 0.47640
 C410 C 0.28471 0.60815 0.47647
 N411 N 0.27346 0.60693 0.49511
 C412 C 0.27843 0.59217 0.51035
 C413 C 0.29564 0.57819 0.50736
 C414 C 0.30204 0.59446 0.47285
 C415 C 0.23948 0.65768 0.52908
 C416 C 0.24247 0.67166 0.54628
 C417 C 0.27702 0.65540 0.55266
 C418 C 0.27339 0.64171 0.53535
 N419 N 0.25474 0.64292 0.52411
 H420 H 0.28020 0.61959 0.46432
 H421 H 0.26900 0.59131 0.52485
 H422 H 0.29957 0.56656 0.51962
 H423 H 0.31096 0.59556 0.45801
 H424 H 0.22496 0.65853 0.51965
 H425 H 0.23020 0.68329 0.55020
 H426 H 0.29188 0.65431 0.56157
 H427 H 0.28556 0.63027 0.53085
 C428 C 0.23784 0.67047 0.44232
 C429 C 0.19158 0.57939 0.51200
 C430 C 0.26139 0.67046 0.55820
 C431 C 0.30757 0.57940 0.48846
 C432 C 0.72117 0.90853 0.51012
 H433 H 0.73060 0.90942 0.52463
 C434 C 0.70393 0.92247 0.50712
 H435 H 0.69997 0.93409 0.51938
 C436 C 0.71495 0.89252 0.47624
 H437 H 0.71947 0.88109 0.46409
 C438 C 0.69758 0.90617 0.47260
 H439 H 0.68867 0.90504 0.45776
 N440 N 0.72618 0.89378 0.49488
 C441 C 0.76020 0.84308 0.52888
 H442 H 0.77473 0.84224 0.51947
 C443 C 0.75722 0.82910 0.54607
 H444 H 0.76950 0.81749 0.55000
 C445 C 0.72627 0.85902 0.53512
 H446 H 0.71410 0.87044 0.53061
 C447 C 0.72265 0.84533 0.55243
 H448 H 0.70779 0.84641 0.56133
 Zn449 Zn 0.75008 0.87582 0.50005
 N450 N 0.74493 0.85782 0.52390
 C451 C 0.78517 0.89264 0.52385
 N452 N 0.77394 0.89384 0.50521
 C453 C 0.77892 0.90860 0.48997
 C454 C 0.79613 0.92259 0.49296
 C455 C 0.80250 0.90633 0.52749
 C456 C 0.74002 0.84303 0.47123
 C457 C 0.74303 0.82905 0.45404
 C458 C 0.77756 0.84536 0.44766
 C459 C 0.77392 0.85906 0.46497
 N460 N 0.75526 0.85782 0.47620
 H461 H 0.78067 0.88120 0.53600
 H462 H 0.76949 0.90945 0.47546
 H463 H 0.80006 0.93422 0.48071
 H464 H 0.81141 0.90524 0.54233
 H465 H 0.72550 0.84216 0.48065
 H466 H 0.73077 0.81740 0.45011
 H467 H 0.79241 0.84648 0.43875
 H468 H 0.78606 0.87052 0.46947
 C469 C 0.73829 0.83029 0.55798
 C470 C 0.69200 0.92122 0.48821
 C471 C 0.76195 0.83028 0.44212
 C472 C 0.80805 0.92139 0.51188
 C473 C 0.00981 0.22141 0.40749
 H474 H 0.02435 0.23082 0.40832
 C475 C 0.00680 0.20423 0.42150
 H476 H 0.01907 0.20032 0.43313
 C477 C -0.02412 0.21515 0.39155
 H478 H -0.03627 0.21964 0.38011
 C479 C -0.02777 0.19786 0.40527
 H480 H -0.04263 0.18896 0.40419
 N481 N -0.00544 0.22637 0.39274
 C482 C 0.02862 0.26012 0.34192
 H483 H 0.01922 0.27465 0.34103
 C484 C 0.04583 0.25706 0.32797
 H485 H 0.04978 0.26928 0.31631
 C486 C 0.03482 0.22625 0.35798
 H487 H 0.03029 0.21413 0.36945
 C488 C 0.05214 0.22254 0.34432
 H489 H 0.06103 0.20768 0.34546
 Zn490 Zn -0.00025 0.25017 0.37468
 N491 N 0.02361 0.24492 0.35671
 C492 C 0.02365 0.28528 0.39135
 N493 N 0.00497 0.27409 0.39260
 C494 C -0.01028 0.27914 0.40733
 C495 C -0.00723 0.29638 0.42126
 C496 C 0.02734 0.30263 0.40499
 C497 C -0.02912 0.24001 0.34198
 C498 C -0.04633 0.24298 0.32800
 C499 C -0.05265 0.27760 0.34416
 C500 C -0.03532 0.27398 0.35785
 N501 N -0.02411 0.25531 0.35669
 H502 H 0.03580 0.28071 0.37993
 H503 H -0.02482 0.26975 0.40821
 H504 H -0.01949 0.30036 0.43288
 H505 H 0.04222 0.31150 0.40388
 H506 H -0.01972 0.22548 0.34117
 H507 H -0.05028 0.23069 0.31642
 H508 H -0.06154 0.29246 0.34520
 H509 H -0.03080 0.28617 0.36924
 C510 C 0.05772 0.23812 0.32923
 C511 C -0.01214 0.19233 0.42032
 C512 C -0.05822 0.26193 0.32915
 C513 C 0.01173 0.30825 0.42004
 C514 C -0.00997 0.72160 0.09202
 H515 H -0.02451 0.73101 0.09120
 C516 C -0.00698 0.70440 0.07804
 H517 H -0.01927 0.70046 0.06644
 C518 C 0.02397 0.71537 0.10794
 H519 H 0.03614 0.71989 0.11937
 C520 C 0.02760 0.69805 0.09425
 H521 H 0.04246 0.68916 0.09533
 N522 N 0.00530 0.72659 0.10676
 C523 C -0.02869 0.76044 0.15756
 H524 H -0.01927 0.77497 0.15843
 C525 C -0.04588 0.75742 0.17154
 H526 H -0.04980 0.76966 0.18319
 C527 C -0.03494 0.72655 0.14155
 H528 H -0.03044 0.71441 0.13009
 C529 C -0.05225 0.72288 0.15524
 H530 H -0.06116 0.70802 0.15413
 Zn531 Zn 0.00014 0.75043 0.12479
 N532 N -0.02371 0.74522 0.14278
 C533 C -0.02373 0.78552 0.10811
 N534 N -0.00506 0.77432 0.10686
 C535 C 0.01018 0.77935 0.09211
 C536 C 0.00715 0.79658 0.07818
 C537 C -0.02741 0.80287 0.09446
 C538 C 0.02902 0.74030 0.15748
 C539 C 0.04623 0.74327 0.17145
 C540 C 0.05260 0.77785 0.15526
 C541 C 0.03526 0.77423 0.14158
 N542 N 0.02402 0.75557 0.14277
 H543 H -0.03588 0.78097 0.11954
 H544 H 0.02471 0.76995 0.09123
 H545 H 0.01940 0.80055 0.06656
 H546 H -0.04228 0.81175 0.09558
 H547 H 0.01959 0.72577 0.15831
 H548 H 0.05017 0.73099 0.18305
 H549 H 0.06150 0.79271 0.15420
 H550 H 0.03074 0.78641 0.13017
 C551 C -0.05779 0.73848 0.17032
 C552 C 0.01195 0.69250 0.07922
 C553 C 0.05815 0.76220 0.17028
 C554 C -0.01180 0.80846 0.07942
 C555 C 0.48998 0.22090 0.59273
 H556 H 0.47546 0.23032 0.59188
 C557 C 0.49298 0.20370 0.57875
 H558 H 0.48072 0.19978 0.56712
 C559 C 0.52389 0.21464 0.60871
 H560 H 0.53605 0.21915 0.62015
 C561 C 0.52753 0.19733 0.59502
 H562 H 0.54239 0.18842 0.59611
 N563 N 0.50523 0.22587 0.60750
 C564 C 0.47121 0.25982 0.65821
 H565 H 0.48064 0.27434 0.65908
 C566 C 0.45399 0.25683 0.67217
 H567 H 0.45005 0.26910 0.68379
 C568 C 0.46495 0.22592 0.64223
 H569 H 0.46946 0.21377 0.63079
 C570 C 0.44761 0.22229 0.65589
 H571 H 0.43869 0.20744 0.65478
 Zn572 Zn 0.50007 0.24974 0.62549
 N573 N 0.47619 0.24457 0.64346
 C574 C 0.47625 0.28483 0.60872
 N575 N 0.49491 0.27361 0.60751
 C576 C 0.51017 0.27860 0.59277
 C577 C 0.50717 0.29580 0.57880
 C578 C 0.47261 0.30216 0.59505
 C579 C 0.52893 0.23965 0.65822
 C580 C 0.54615 0.24264 0.67219
 C581 C 0.55252 0.27719 0.65594
 C582 C 0.53519 0.27356 0.64227
 N583 N 0.52395 0.25490 0.64348
 H584 H 0.46409 0.28032 0.62015
 H585 H 0.52470 0.26918 0.59191
 H586 H 0.51944 0.29973 0.56718
 H587 H 0.45775 0.31106 0.59614
 H588 H 0.51950 0.22513 0.65907
 H589 H 0.55008 0.23037 0.68380
 H590 H 0.56144 0.29204 0.65485
 H591 H 0.53068 0.28572 0.63084
 C592 C 0.44206 0.23791 0.67094
 C593 C 0.51191 0.19179 0.57996
 C594 C 0.55807 0.26156 0.67098
 C595 C 0.48824 0.30771 0.58000
 C596 C 0.51000 0.72169 0.90786
 H597 H 0.52453 0.73111 0.90871
 C598 C 0.50702 0.70447 0.92182
 H599 H 0.51929 0.70054 0.93343
 C600 C 0.47607 0.71544 0.89192
 H601 H 0.46390 0.71995 0.88050
 C602 C 0.47244 0.69811 0.90559
 H603 H 0.45758 0.68920 0.90450
 N604 N 0.49473 0.72668 0.89313
 C605 C 0.52873 0.76065 0.84242
 H606 H 0.51932 0.77518 0.84158
 C607 C 0.54593 0.75765 0.82844
 H608 H 0.54987 0.76992 0.81683
 C609 C 0.53496 0.72673 0.85835
 H610 H 0.53045 0.71456 0.86977
 C611 C 0.55228 0.72308 0.84466
 H612 H 0.56117 0.70822 0.84573
 Zn613 Zn 0.49989 0.75055 0.87516
 N614 N 0.52374 0.74539 0.85716
 C615 C 0.52374 0.78563 0.89195
 N616 N 0.50507 0.77441 0.89315
 C617 C 0.48983 0.77939 0.90791
 C618 C 0.49285 0.79658 0.92191
 C619 C 0.52740 0.80294 0.90565
 C620 C 0.47100 0.74047 0.84244
 C621 C 0.45378 0.74346 0.82849
 C622 C 0.44742 0.77801 0.84476
 C623 C 0.46477 0.77437 0.85842
 N624 N 0.47600 0.75572 0.85719
 H625 H 0.53589 0.78113 0.88050
 H626 H 0.47530 0.76997 0.90876
 H627 H 0.48059 0.80050 0.93354
 H628 H 0.54227 0.81184 0.90456
 H629 H 0.48043 0.72595 0.84157
 H630 H 0.44984 0.73119 0.81686
 H631 H 0.43851 0.79286 0.84586
 H632 H 0.46928 0.78653 0.86986
 C633 C 0.55783 0.73871 0.82962
 C634 C 0.48808 0.69256 0.92062
 C635 C 0.44186 0.76238 0.82971
 C636 C 0.51179 0.80848 0.92071
 C637 C 0.14059 0.22175 0.26299
 C638 C 0.13539 0.24552 0.26656
 C639 C 0.11853 0.24885 0.28002
 C640 C 0.10853 0.22809 0.28859
 C641 C 0.12717 0.21585 0.29896
 C642 C 0.14402 0.21252 0.28550
 C643 C 0.11955 0.21172 0.25512
 C644 C 0.10270 0.21506 0.26858
 C645 C 0.15873 0.21816 0.24850
 C646 C 0.17363 0.21521 0.23659
 C647 C 0.09039 0.23167 0.30308
 C648 C 0.07549 0.23461 0.31500
 H649 H 0.14417 0.25858 0.25916
 H650 H 0.11288 0.26477 0.28415
 H651 H 0.12713 0.21029 0.31543
 H652 H 0.15842 0.20410 0.29043
 H653 H 0.11803 0.20279 0.24028
 H654 H 0.08674 0.20898 0.26527
 C655 C 0.64060 0.72254 0.76320
 C656 C 0.63539 0.74630 0.76681
 C657 C 0.61856 0.74960 0.78031
 C658 C 0.60859 0.72882 0.78888
 C659 C 0.62726 0.71659 0.79919
 C660 C 0.64409 0.71329 0.78570
 C661 C 0.61956 0.71251 0.75536
 C662 C 0.60273 0.71581 0.76886
 C663 C 0.65871 0.71898 0.74867
 C664 C 0.67360 0.71605 0.73674
 C665 C 0.59048 0.73237 0.80341
 C666 C 0.57559 0.73527 0.81535
 H667 H 0.64414 0.75938 0.75941
 H668 H 0.61289 0.76551 0.78447
 H669 H 0.62726 0.71101 0.81565
 H670 H 0.65850 0.70488 0.79059
 H671 H 0.61801 0.70359 0.74052
 H672 H 0.58676 0.70972 0.76558
 C673 C 0.35893 0.77843 0.76344
 C674 C 0.37477 0.76140 0.75545
 C675 C 0.39163 0.75813 0.76892
 C676 C 0.39100 0.77221 0.78906
 C677 C 0.36913 0.76765 0.79934
 C678 C 0.35227 0.77092 0.78587
 C679 C 0.37256 0.79855 0.76722
 C680 C 0.38942 0.79528 0.78070
 C681 C 0.34078 0.78194 0.74894
 C682 C 0.32588 0.78484 0.73701
 C683 C 0.40915 0.76869 0.80356
 C684 C 0.42406 0.76581 0.81548
 H685 H 0.37290 0.75268 0.74053
 H686 H 0.40421 0.74661 0.76554
 H687 H 0.36707 0.76232 0.81575
 H688 H 0.33576 0.76839 0.79074
 H689 H 0.36927 0.81400 0.75996
 H690 H 0.40057 0.80793 0.78498
 C691 C -0.14104 0.27792 0.26273
 C692 C -0.14481 0.28658 0.28542
 C693 C -0.12798 0.28331 0.29892
 C694 C -0.10901 0.27172 0.28841
 C695 C -0.10334 0.28531 0.26874
 C696 C -0.12018 0.28857 0.25524
 C697 C -0.13534 0.25420 0.26580
 C698 C -0.11850 0.25094 0.27930
 C699 C -0.15916 0.28144 0.24820
 C700 C -0.17406 0.28434 0.23626
 C701 C -0.09089 0.26821 0.30294
 C702 C -0.07600 0.26534 0.31489
 H703 H -0.15942 0.29456 0.29044
 H704 H -0.12816 0.28851 0.31551
 H705 H -0.08749 0.29181 0.26568
 H706 H -0.11876 0.29786 0.24061
 H707 H -0.14379 0.24112 0.25805
 H708 H -0.11252 0.23506 0.28312
 C709 C -0.14052 0.72238 0.23680
 C710 C -0.11896 0.71483 0.24589
 C711 C -0.10213 0.71810 0.23237
 C712 C -0.10853 0.72860 0.21109
 C713 C -0.12023 0.74927 0.21743
 C714 C -0.13705 0.74601 0.23094
 C715 C -0.14281 0.71072 0.21528
 C716 C -0.12598 0.71399 0.20176
 C717 C -0.15863 0.71885 0.25135
 C718 C -0.17351 0.71594 0.26330
 C719 C -0.09042 0.73211 0.19654
 C720 C -0.07555 0.73501 0.18459
 H721 H -0.11706 0.70756 0.26156
 H722 H -0.08583 0.71362 0.23646
 H723 H -0.11570 0.76509 0.21180
 H724 H -0.14693 0.75902 0.23689
 H725 H -0.15643 0.70078 0.21103
 H726 H -0.12520 0.70685 0.18593
 C727 C 0.35912 0.22179 0.73716
 C728 C 0.35400 0.23698 0.71853
 C729 C 0.37086 0.24027 0.70507
 C730 C 0.39119 0.22805 0.71156
 C731 C 0.38426 0.20451 0.71309
 C732 C 0.36740 0.20122 0.72655
 C733 C 0.37877 0.23163 0.74820
 C734 C 0.39564 0.23492 0.73474
 C735 C 0.34097 0.21824 0.75165
 C736 C 0.32606 0.21531 0.76356
 C737 C 0.40934 0.23159 0.69708
 C738 C 0.42426 0.23448 0.68516
 H739 H 0.33850 0.24449 0.71612
 H740 H 0.36981 0.25060 0.69113
 H741 H 0.39192 0.19156 0.70437
 H742 H 0.36061 0.18545 0.72936
 H743 H 0.37939 0.23567 0.76509
 H744 H 0.41070 0.24178 0.74010
 C745 C 0.64097 0.27769 0.73730
 C746 C 0.64767 0.27074 0.71470
 C747 C 0.63082 0.26745 0.70122
 C748 C 0.60891 0.27143 0.71166
 C749 C 0.61013 0.29435 0.72049
 C750 C 0.62698 0.29764 0.73396
 C751 C 0.62545 0.26023 0.74499
 C752 C 0.60860 0.25694 0.73151
 C753 C 0.65910 0.28124 0.75180
 C754 C 0.67401 0.28418 0.76373
 C755 C 0.59077 0.26789 0.69715
 C756 C 0.57586 0.26500 0.68522
 H757 H 0.66420 0.26860 0.70972
 H758 H 0.63291 0.26248 0.68469
 H759 H 0.59876 0.30689 0.71650
 H760 H 0.63005 0.31300 0.74152
 H761 H 0.62752 0.25125 0.75972
 H762 H 0.59623 0.24513 0.73470
 C763 C 0.14096 0.77821 0.23673
 C764 C 0.11941 0.77554 0.24827
 C765 C 0.10258 0.77228 0.23476
 C766 C 0.10894 0.77200 0.21103
 C767 C 0.12644 0.75481 0.20930
 C768 C 0.14327 0.75807 0.22282
 C769 C 0.13742 0.79661 0.22082
 C770 C 0.12059 0.79334 0.20730
 C771 C 0.15907 0.78173 0.25128
 C772 C 0.17395 0.78463 0.26323
 C773 C 0.09082 0.76850 0.19649
 C774 C 0.07593 0.76562 0.18454
 H775 H 0.11754 0.77615 0.26554
 H776 H 0.08629 0.77009 0.24045
 H777 H 0.12567 0.74126 0.19843
 H778 H 0.15692 0.74732 0.22352
 H779 H 0.14727 0.81093 0.22021
 H780 H 0.11602 0.80487 0.19512
 C781 C 0.26326 0.14014 0.22199
 C782 C 0.26964 0.12841 0.20136
 C783 C 0.28311 0.11155 0.20468
 C784 C 0.28888 0.10809 0.22832
 C785 C 0.26730 0.10588 0.23989
 C786 C 0.25383 0.12273 0.23656
 C787 C 0.28455 0.14648 0.23256
 C788 C 0.29802 0.12963 0.23588
 C789 C 0.24877 0.15828 0.21841
 C790 C 0.23685 0.17318 0.21546
 C791 C 0.30338 0.08995 0.23189
 C792 C 0.31530 0.07504 0.23481
 H793 H 0.26407 0.13294 0.18553
 H794 H 0.28907 0.10164 0.19170
 H795 H 0.26297 0.09228 0.24982
 H796 H 0.23796 0.12357 0.24364
 H797 H 0.28868 0.16278 0.23703
 H798 H 0.31369 0.13149 0.24321
 C799 C 0.76307 0.64085 0.72182
 C800 C 0.77432 0.63311 0.70138
 C801 C 0.78776 0.61623 0.70464
 C802 C 0.78864 0.60873 0.72803
 C803 C 0.76528 0.60404 0.73410
 C804 C 0.75183 0.62092 0.73083
 C805 C 0.78125 0.64566 0.73766
 C806 C 0.79470 0.62878 0.74092
 C807 C 0.74860 0.65902 0.71830
 C808 C 0.73670 0.67395 0.71540
 C809 C 0.80312 0.59056 0.73154
 C810 C 0.81503 0.57564 0.73441
 H811 H 0.77193 0.64027 0.68572
 H812 H 0.79690 0.60892 0.69178
 H813 H 0.75978 0.58879 0.74041
 H814 H 0.73481 0.62014 0.73435
 H815 H 0.78338 0.66098 0.74561
 H816 H 0.80834 0.62963 0.75167
 C817 C 0.76280 0.35903 0.77763
 C818 C 0.75626 0.37942 0.78973
 C819 C 0.76977 0.39625 0.78643
 C820 C 0.78848 0.39106 0.77136
 C821 C 0.77794 0.38269 0.75079
 C822 C 0.76444 0.36585 0.75409
 C823 C 0.78596 0.35461 0.78462
 C824 C 0.79946 0.37145 0.78132
 C825 C 0.74826 0.34091 0.78119
 C826 C 0.73632 0.32602 0.78413
 C827 C 0.80301 0.40918 0.76781
 C828 C 0.81496 0.42407 0.76492
 H829 H 0.74227 0.38053 0.79999
 H830 H 0.76734 0.41179 0.79386
 H831 H 0.78083 0.38940 0.73502
 H832 H 0.75576 0.35814 0.74114
 H833 H 0.79129 0.33958 0.79155
 H834 H 0.81636 0.37084 0.78543
 C835 C 0.26302 -0.14145 0.27829
 C836 C 0.26554 -0.12684 0.29790
 C837 C 0.27906 -0.11002 0.29460
 C838 C 0.28873 -0.10945 0.27202
 C839 C 0.26941 -0.10970 0.25681
 C840 C 0.25589 -0.12653 0.26010
 C841 C 0.28591 -0.14822 0.27240
 C842 C 0.29943 -0.13140 0.26911
 C843 C 0.24846 -0.15955 0.28183
 C844 C 0.23648 -0.17443 0.28474
 C845 C 0.30328 -0.09134 0.26847
 C846 C 0.31524 -0.07646 0.26557
 H847 H 0.25742 -0.12948 0.31304
 H848 H 0.28252 -0.09825 0.30692
 H849 H 0.26660 -0.09772 0.24453
 H850 H 0.24150 -0.12896 0.25065
 H851 H 0.29105 -0.16478 0.27095
 H852 H 0.31616 -0.13354 0.26483
 C853 C 0.23686 -0.14119 0.72200
 C854 C 0.24603 -0.11963 0.71454
 C855 C 0.23253 -0.10279 0.71780
 C856 C 0.21118 -0.10917 0.72821
 C857 C 0.21742 -0.12093 0.74886
 C858 C 0.23093 -0.13776 0.74560
 C859 C 0.21536 -0.14340 0.71028
 C860 C 0.20185 -0.12656 0.71354
 C861 C 0.25140 -0.15931 0.71848
 C862 C 0.26335 -0.17420 0.71557
 C863 C 0.19664 -0.09104 0.73171
 C864 C 0.18470 -0.07614 0.73459
 H865 H 0.26175 -0.11775 0.70733
 H866 H 0.23667 -0.08649 0.71339
 H867 H 0.21174 -0.11642 0.76466
 H868 H 0.23682 -0.14769 0.75860
 H869 H 0.21111 -0.15699 0.70029
 H870 H 0.18603 -0.12573 0.70635
 C871 C 0.73710 0.35906 0.22230
 C872 C 0.71812 0.35372 0.23698
 C873 C 0.70461 0.37056 0.24028
 C874 C 0.71142 0.39108 0.22857
 C875 C 0.71344 0.38456 0.20496
 C876 C 0.72694 0.36773 0.20167
 C877 C 0.74797 0.37851 0.23272
 C878 C 0.73447 0.39534 0.23601
 C879 C 0.75164 0.34095 0.21875
 C880 C 0.76359 0.32607 0.21582
 C881 C 0.69688 0.40920 0.23211
 C882 C 0.68494 0.42409 0.23501
 H883 H 0.71551 0.33810 0.24415
 H884 H 0.69044 0.36935 0.25027
 H885 H 0.70501 0.39247 0.19198
 H886 H 0.73008 0.36122 0.18586
 H887 H 0.76479 0.37901 0.23712
 H888 H 0.73972 0.41026 0.24324
 C889 C 0.73694 0.64083 0.27830
 C890 C 0.74077 0.62915 0.25702
 C891 C 0.72730 0.61227 0.25376
 C892 C 0.71133 0.60872 0.27211
 C893 C 0.69970 0.63023 0.27470
 C894 C 0.71317 0.64711 0.27795
 C895 C 0.73868 0.62338 0.29553
 C896 C 0.72521 0.60650 0.29228
 C897 C 0.75143 0.65899 0.28180
 C898 C 0.76335 0.67392 0.28468
 C899 C 0.69684 0.59055 0.26860
 C900 C 0.68493 0.57563 0.26571
 H901 H 0.75297 0.63373 0.24552
 H902 H 0.72798 0.60239 0.23947
 H903 H 0.68241 0.63205 0.27403
 H904 H 0.70741 0.66338 0.28008
 H905 H 0.74952 0.62422 0.30910
 H906 H 0.72452 0.59288 0.30305
 C907 C 0.23727 0.14044 0.77745
 C908 C 0.22129 0.13691 0.79579
 C909 C 0.20778 0.12007 0.79251
 C910 C 0.21157 0.10841 0.77121
 C911 C 0.23533 0.10206 0.77155
 C912 C 0.24884 0.11890 0.77483
 C913 C 0.22340 0.14272 0.75728
 C914 C 0.20989 0.12588 0.75400
 C915 C 0.25181 0.15856 0.78099
 C916 C 0.26375 0.17345 0.78392
 C917 C 0.19702 0.09029 0.76769
 C918 C 0.18506 0.07541 0.76482
 H919 H 0.22064 0.14677 0.81009
 H920 H 0.19556 0.11551 0.80401
 H921 H 0.24104 0.08577 0.76940
 H922 H 0.26612 0.11703 0.77549
 H923 H 0.22413 0.15636 0.74653
 H924 H 0.19904 0.12510 0.74044
 C925 C 0.22213 0.26280 0.14043
 C926 C 0.21096 0.28456 0.14292
 C927 C 0.21424 0.29806 0.12609
 C928 C 0.22838 0.28847 0.10842
 C929 C 0.21735 0.26740 0.10215
 C930 C 0.21406 0.25391 0.11898
 C931 C 0.24582 0.26819 0.13661
 C932 C 0.24911 0.28169 0.11978
 C933 C 0.21859 0.24828 0.15854
 C934 C 0.21566 0.23636 0.17343
 C935 C 0.23192 0.30299 0.09031
 C936 C 0.23481 0.31494 0.07543
 H937 H 0.20131 0.28898 0.15669
 H938 H 0.20741 0.31404 0.12545
 H939 H 0.21254 0.26343 0.08593
 H940 H 0.20644 0.23838 0.11717
 H941 H 0.25887 0.26196 0.14627
 H942 H 0.26497 0.28701 0.11503
 C943 C 0.72214 0.76383 0.64067
 C944 C 0.73427 0.75347 0.62197
 C945 C 0.73757 0.76698 0.60516
 C946 C 0.72842 0.78953 0.60870
 C947 C 0.73856 0.79731 0.62970
 C948 C 0.73526 0.78380 0.64651
 C949 C 0.70136 0.77250 0.63080
 C950 C 0.70466 0.78602 0.61399
 C951 C 0.71858 0.74928 0.65876
 C952 C 0.71563 0.73732 0.67362
 C953 C 0.73196 0.80407 0.59061
 C954 C 0.73486 0.81602 0.57573
 H955 H 0.73979 0.73698 0.62194
 H956 H 0.74592 0.76207 0.59073
 H957 H 0.74755 0.81213 0.63123
 H958 H 0.74142 0.78704 0.66244
 H959 H 0.68545 0.76840 0.63651
 H960 H 0.69158 0.79349 0.60530
 C961 C 0.77809 0.76380 0.35942
 C962 C 0.77692 0.78749 0.35293
 C963 C 0.77363 0.80101 0.36975
 C964 C 0.77183 0.78951 0.39139
 C965 C 0.79246 0.77625 0.39331
 C966 C 0.79575 0.76273 0.37650
 C967 C 0.75716 0.75947 0.37156
 C968 C 0.75387 0.77299 0.38838
 C969 C 0.78163 0.74924 0.34133
 C970 C 0.78455 0.73728 0.32646
 C971 C 0.76830 0.80406 0.40949
 C972 C 0.76540 0.81602 0.42437
 H973 H 0.77854 0.79315 0.33658
 H974 H 0.77243 0.81825 0.36779
 H975 H 0.80350 0.77738 0.40669
 H976 H 0.80961 0.75228 0.37548
 H977 H 0.74591 0.74689 0.36733
 H978 H 0.73980 0.77199 0.39855
 C979 C 0.27837 0.26306 -0.14103
 C980 C 0.28736 0.25462 -0.11977
 C981 C 0.28403 0.26809 -0.10293
 C982 C 0.27204 0.28868 -0.10899
 C983 C 0.25128 0.28104 -0.11974
 C984 C 0.25460 0.26757 -0.13658
 C985 C 0.28864 0.28522 -0.14395
 C986 C 0.28531 0.29869 -0.12710
 C987 C 0.28195 0.24857 -0.15916
 C988 C 0.28490 0.23665 -0.17406
 C989 C 0.26846 0.30318 -0.09086
 C990 C 0.26554 0.31510 -0.07596
 H991 H 0.29561 0.23941 -0.11810
 H992 H 0.28943 0.26441 -0.08682
 H993 H 0.23536 0.28579 -0.11457
 H994 H 0.24154 0.26079 -0.14584
 H995 H 0.29772 0.28991 -0.15800
 H996 H 0.29155 0.31492 -0.12673
 C997 C 0.72166 0.23650 -0.14079
 C998 C 0.71252 0.24487 -0.11956
 C999 C 0.71587 0.23141 -0.10272
 C1000 C 0.72803 0.21091 -0.10875
 C1001 C 0.74879 0.21870 -0.11939
 C1002 C 0.74544 0.23216 -0.13623
 C1003 C 0.71156 0.21428 -0.14378
 C1004 C 0.71491 0.20082 -0.12693
 C1005 C 0.71806 0.25098 -0.15892
 C1006 C 0.71510 0.26289 -0.17382
 C1007 C 0.73163 0.19642 -0.09062
 C1008 C 0.73459 0.18451 -0.07573
 H1009 H 0.70415 0.26002 -0.11791
 H1010 H 0.71037 0.23504 -0.08664
 H1011 H 0.76471 0.21406 -0.11415
 H1012 H 0.75849 0.23905 -0.14543
 H1013 H 0.70257 0.20953 -0.15788
 H1014 H 0.70878 0.18455 -0.12660
 C1015 C 0.22205 0.73690 0.35953
 C1016 C 0.21283 0.74526 0.38072
 C1017 C 0.21604 0.73176 0.39756
 C1018 C 0.22814 0.71121 0.39155
 C1019 C 0.24899 0.71894 0.38103
 C1020 C 0.24578 0.73244 0.36419
 C1021 C 0.21186 0.71472 0.35645
 C1022 C 0.21507 0.70122 0.37328
 C1023 C 0.21859 0.75143 0.34141
 C1024 C 0.21574 0.76337 0.32651
 C1025 C 0.23159 0.69668 0.40967
 C1026 C 0.23443 0.68473 0.42456
 H1027 H 0.20453 0.76045 0.38237
 H1028 H 0.21048 0.73538 0.41362
 H1029 H 0.26486 0.71422 0.38633
 H1030 H 0.25891 0.73929 0.35507
 H1031 H 0.20292 0.71004 0.34229
 H1032 H 0.20887 0.68497 0.37355
 C1033 C 0.27745 0.73695 0.64092
 C1034 C 0.26780 0.71529 0.64742
 C1035 C 0.26453 0.70176 0.63061
 C1036 C 0.27123 0.71123 0.60894
 C1037 C 0.29474 0.71783 0.61185
 C1038 C 0.29802 0.73135 0.62866
 C1039 C 0.26211 0.74592 0.62394
 C1040 C 0.25884 0.73239 0.60712
 C1041 C 0.28098 0.75150 0.65902
 C1042 C 0.28389 0.76347 0.67389
 C1043 C 0.26771 0.69668 0.59084
 C1044 C 0.26482 0.68472 0.57596
 H1045 H 0.26388 0.71095 0.66379
 H1046 H 0.25780 0.68584 0.63257
 H1047 H 0.30769 0.71236 0.60160
 H1048 H 0.31377 0.73746 0.63282
 H1049 H 0.25449 0.76151 0.62502
 H1050 H 0.24841 0.73641 0.59380
 C1051 C 0.77843 0.23652 0.14076
 C1052 C 0.78166 0.21279 0.14632
 C1053 C 0.77836 0.19932 0.12946
 C1054 C 0.77215 0.21091 0.10870
 C1055 C 0.79013 0.22725 0.10489
 C1056 C 0.79344 0.24071 0.12175
 C1057 C 0.75572 0.23784 0.13140
 C1058 C 0.75242 0.22437 0.11455
 C1059 C 0.78198 0.25101 0.15890
 C1060 C 0.78490 0.26293 0.17380
 C1061 C 0.76860 0.19642 0.09056
 C1062 C 0.76568 0.18450 0.07565
 H1063 H 0.78615 0.20706 0.16210
 H1064 H 0.78002 0.18206 0.13081
 H1065 H 0.79946 0.22816 0.09025
 H1066 H 0.80559 0.25316 0.12155
 H1067 H 0.74333 0.24842 0.13748
 H1068 H 0.73720 0.22342 0.10618
 C1069 C 0.47206 0.39049 0.51363
 C1070 C 0.48339 0.37143 0.50302
 C1071 C 0.48670 0.35460 0.51651
 C1072 C 0.47835 0.35848 0.53929
 C1073 C 0.45462 0.36434 0.53649
 C1074 C 0.45132 0.38117 0.52300
 C1075 C 0.48593 0.39611 0.53313
 C1076 C 0.48924 0.37928 0.54662
 C1077 C 0.46849 0.40860 0.49911
 C1078 C 0.46555 0.42348 0.48717
 C1079 C 0.48190 0.34037 0.55382
 C1080 C 0.48480 0.32548 0.56575
 H1081 H 0.48839 0.37117 0.48637
 H1082 H 0.49453 0.33992 0.51142
 H1083 H 0.44157 0.35601 0.54441
 H1084 H 0.43543 0.38725 0.51936
 H1085 H 0.49258 0.41191 0.53608
 H1086 H 0.49872 0.38066 0.56113
 C1087 C -0.02812 0.89128 0.01312
 C1088 C -0.03648 0.89514 0.03591
 C1089 C -0.03315 0.87831 0.04939
 C1090 C -0.02179 0.85926 0.03877
 C1091 C -0.00106 0.86862 0.02940
 C1092 C -0.00439 0.88545 0.01592
 C1093 C -0.03899 0.87048 0.00578
 C1094 C -0.03566 0.85364 0.01926
 C1095 C -0.03171 0.90939 -0.00139
 C1096 C -0.03466 0.92427 -0.01333
 C1097 C -0.01821 0.84114 0.05327
 C1098 C -0.01528 0.82625 0.06519
 H1099 H -0.04432 0.90980 0.04101
 H1100 H -0.03814 0.87855 0.06604
 H1101 H 0.01483 0.86255 0.03304
 H1102 H 0.00865 0.89380 0.00800
 H1103 H -0.04847 0.86909 -0.00873
 H1104 H -0.04229 0.83784 0.01630
 C1105 C 0.02797 0.60957 0.01295
 C1106 C 0.03736 0.60619 0.03541
 C1107 C 0.03410 0.62305 0.04887
 C1108 C 0.02176 0.64165 0.03856
 C1109 C 0.00095 0.63161 0.03013
 C1110 C 0.00421 0.61474 0.01667
 C1111 C 0.03791 0.63061 0.00499
 C1112 C 0.03465 0.64747 0.01846
 C1113 C 0.03148 0.59142 -0.00154
 C1114 C 0.03438 0.57650 -0.01344
 C1115 C 0.01825 0.65980 0.05305
 C1116 C 0.01538 0.67471 0.06498
 H1117 H 0.04583 0.59181 0.04030
 H1118 H 0.03978 0.62313 0.06530
 H1119 H -0.01495 0.63725 0.03436
 H1120 H -0.00889 0.60594 0.00936
 H1121 H 0.04674 0.63212 -0.00990
 H1122 H 0.04068 0.66343 0.01509
 C1123 C 0.52811 0.10904 0.51351
 C1124 C 0.53749 0.10561 0.53597
 C1125 C 0.53418 0.12244 0.54947
 C1126 C 0.52182 0.14104 0.53920
 C1127 C 0.50103 0.13098 0.53072
 C1128 C 0.50434 0.11416 0.51722
 C1129 C 0.53802 0.13011 0.50562
 C1130 C 0.53471 0.14694 0.51912
 C1131 C 0.53168 0.09093 0.49898
 C1132 C 0.53463 0.07605 0.48704
 C1133 C 0.51827 0.15915 0.55373
 C1134 C 0.51536 0.17403 0.56569
 H1135 H 0.54598 0.09124 0.54083
 H1136 H 0.53984 0.12248 0.56590
 H1137 H 0.48512 0.13658 0.53495
 H1138 H 0.49126 0.10534 0.50988
 H1139 H 0.54686 0.13168 0.49073
 H1140 H 0.54072 0.16292 0.51580
 C1141 C -0.02829 0.10956 0.48671
 C1142 C -0.04552 0.11173 0.46932
 C1143 C -0.04223 0.12857 0.45583
 C1144 C -0.02202 0.14158 0.46106
 C1145 C -0.00368 0.12520 0.46102
 C1146 C -0.00698 0.10836 0.47451
 C1147 C -0.02791 0.13136 0.49807
 C1148 C -0.02461 0.14820 0.48459
 C1149 C -0.03184 0.09143 0.50122
 C1150 C -0.03478 0.07653 0.51314
 C1151 C -0.01848 0.15970 0.44654
 C1152 C -0.01558 0.17458 0.43459
 H1153 H -0.05911 0.10099 0.46773
 H1154 H -0.05300 0.13225 0.44269
 H1155 H 0.01063 0.12669 0.45126
 H1156 H 0.00452 0.09543 0.47630
 H1157 H -0.03003 0.13340 0.51520
 H1158 H -0.02391 0.16466 0.49016
 C1159 C 0.47215 0.60966 0.98691
 C1160 C 0.46325 0.60601 0.96429
 C1161 C 0.46649 0.62287 0.95082
 C1162 C 0.47831 0.64172 0.96128
 C1163 C 0.49912 0.63208 0.97015
 C1164 C 0.49588 0.61522 0.98362
 C1165 C 0.46170 0.63055 0.99458
 C1166 C 0.46494 0.64741 0.98111
 C1167 C 0.46865 0.59151 1.00140
 C1168 C 0.46577 0.57660 1.01331
 C1169 C 0.48179 0.65987 0.94678
 C1170 C 0.48466 0.67478 0.93486
 H1171 H 0.45511 0.59147 0.95929
 H1172 H 0.46113 0.62277 0.93428
 H1173 H 0.51500 0.63798 0.96620
 H1174 H 0.50899 0.60667 0.99121
 H1175 H 0.45256 0.63198 1.00930
 H1176 H 0.45858 0.66328 0.98429
 C1177 C 0.52805 0.89113 0.98727
 C1178 C 0.53494 0.89565 0.96412
 C1179 C 0.53162 0.87885 0.95059
 C1180 C 0.52174 0.85917 0.96153
 C1181 C 0.50117 0.86744 0.97217
 C1182 C 0.50449 0.88424 0.98570
 C1183 C 0.54024 0.87076 0.99369
 C1184 C 0.53692 0.85396 0.98015
 C1185 C 0.53162 0.90921 1.00184
 C1186 C 0.53457 0.92408 1.01381
 C1187 C 0.51818 0.84109 0.94697
 C1188 C 0.51526 0.82622 0.93500
 H1189 H 0.54181 0.91072 0.95882
 H1190 H 0.53566 0.87953 0.93370
 H1191 H 0.48539 0.86069 0.96932
 H1192 H 0.49155 0.89189 0.99445
 H1193 H 0.55056 0.86964 1.00763
 H1194 H 0.54441 0.83844 0.98250
 C1195 C 0.02808 0.39106 0.48638
 C1196 C 0.03495 0.39553 0.46321
 C1197 C 0.03162 0.37870 0.44972
 C1198 C 0.02174 0.35905 0.46071
 C1199 C 0.00118 0.36734 0.47134
 C1200 C 0.00451 0.38417 0.48484
 C1201 C 0.04026 0.37070 0.49283
 C1202 C 0.03693 0.35387 0.47933
 C1203 C 0.03166 0.40917 0.50091
 C1204 C 0.03461 0.42404 0.51286
 C1205 C 0.01816 0.34093 0.44619
 C1206 C 0.01522 0.32603 0.43426
 H1207 H 0.04183 0.41058 0.45788
 H1208 H 0.03564 0.37934 0.43282
 H1209 H -0.01460 0.36059 0.46852
 H1210 H -0.00842 0.39184 0.49358
 H1211 H 0.05060 0.36960 0.50676
 H1212 H 0.04442 0.33835 0.48171
 C1213 C 0.39045 0.51306 0.47237
 C1214 C 0.38896 0.53117 0.45582
 C1215 C 0.37211 0.54465 0.45910
 C1216 C 0.35840 0.53870 0.47862
 C1217 C 0.37417 0.53787 0.49746
 C1218 C 0.39102 0.52439 0.49417
 C1219 C 0.36857 0.50185 0.47156
 C1220 C 0.35172 0.51533 0.47485
 C1221 C 0.40859 0.49855 0.46882
 C1222 C 0.42350 0.48663 0.46590
 C1223 C 0.34026 0.55321 0.48215
 C1224 C 0.32536 0.56515 0.48503
 H1225 H 0.40015 0.53323 0.44268
 H1226 H 0.36886 0.55826 0.44878
 H1227 H 0.37227 0.54706 0.51209
 H1228 H 0.40356 0.52203 0.50599
 H1229 H 0.36650 0.48483 0.46867
 H1230 H 0.33521 0.50986 0.47477
 C1231 C 0.89116 0.01308 -0.02837
 C1232 C 0.86941 0.00328 -0.03433
 C1233 C 0.85255 0.01675 -0.03103
 C1234 C 0.85909 0.03871 -0.02210
 C1235 C 0.87568 0.04740 -0.03804
 C1236 C 0.89254 0.03393 -0.04133
 C1237 C 0.88873 0.02027 -0.00500
 C1238 C 0.87187 0.03374 -0.00170
 C1239 C 0.90931 -0.00141 -0.03192
 C1240 C 0.92422 -0.01334 -0.03483
 C1241 C 0.84095 0.05321 -0.01856
 C1242 C 0.82604 0.06512 -0.01563
 H1243 H 0.86742 -0.01283 -0.04058
 H1244 H 0.83611 0.01218 -0.03446
 H1245 H 0.87430 0.06278 -0.04603
 H1246 H 0.90560 0.03777 -0.05215
 H1247 H 0.89932 0.01522 0.00784
 H1248 H 0.86802 0.04024 0.01396
 C1249 C 0.60949 0.01275 0.02798
 C1250 C 0.61248 0.01923 0.00447
 C1251 C 0.62933 0.03272 0.00120
 C1252 C 0.64154 0.03842 0.02176
 C1253 C 0.64800 0.01680 0.03153
 C1254 C 0.63115 0.00331 0.03480
 C1255 C 0.60764 0.03398 0.04025
 C1256 C 0.62449 0.04747 0.03698
 C1257 C 0.59135 -0.00177 0.03150
 C1258 C 0.57645 -0.01371 0.03440
 C1259 C 0.65967 0.05295 0.01824
 C1260 C 0.67457 0.06489 0.01535
 H1261 H 0.60227 0.01370 -0.00847
 H1262 H 0.63356 0.03875 -0.01454
 H1263 H 0.66436 0.01247 0.03553
 H1264 H 0.63308 -0.01258 0.04160
 H1265 H 0.59427 0.03805 0.05060
 H1266 H 0.62555 0.06311 0.04453
 C1267 C 0.10873 0.51295 0.52798
 C1268 C 0.13067 0.50215 0.53059
 C1269 C 0.14751 0.51566 0.52733
 C1270 C 0.14077 0.53864 0.52178
 C1271 C 0.12600 0.54558 0.54017
 C1272 C 0.10916 0.53208 0.54343
 C1273 C 0.10916 0.52291 0.50551
 C1274 C 0.12600 0.53641 0.50226
 C1275 C 0.09060 0.49842 0.53149
 C1276 C 0.07570 0.48647 0.53438
 C1277 C 0.15890 0.55318 0.51828
 C1278 C 0.17380 0.56513 0.51541
 H1279 H 0.13279 0.48537 0.53464
 H1280 H 0.16406 0.51045 0.52859
 H1281 H 0.12855 0.55985 0.54978
 H1282 H 0.09728 0.53477 0.55583
 H1283 H 0.09728 0.51963 0.49325
 H1284 H 0.12855 0.54470 0.48720
 C1285 C 0.10930 0.48671 -0.02812
 C1286 C 0.11677 0.48580 -0.00472
 C1287 C 0.13360 0.47229 -0.00145
 C1288 C 0.14131 0.46101 -0.02188
 C1289 C 0.14621 0.47918 -0.03771
 C1290 C 0.12938 0.49269 -0.04098
 C1291 C 0.10451 0.46337 -0.03421
 C1292 C 0.12134 0.44986 -0.03093
 C1293 C 0.09118 0.50125 -0.03165
 C1294 C 0.07630 0.51320 -0.03457
 C1295 C 0.15943 0.44647 -0.01836
 C1296 C 0.17432 0.43452 -0.01548
 H1297 H 0.10949 0.49496 0.00813
 H1298 H 0.14074 0.46987 0.01422
 H1299 H 0.16155 0.48124 -0.04564
 H1300 H 0.13030 0.50633 -0.05172
 H1301 H 0.08925 0.45794 -0.04054
 H1302 H 0.12050 0.43285 -0.03446
 C1303 C 0.60895 0.98733 0.47210
 C1304 C 0.61416 0.97315 0.45272
 C1305 C 0.63105 0.95971 0.45601
 C1306 C 0.64107 0.96178 0.47836
 C1307 C 0.62245 0.95823 0.49402
 C1308 C 0.60557 0.97166 0.49073
 C1309 C 0.62996 0.99901 0.47731
 C1310 C 0.64685 0.98558 0.48060
 C1311 C 0.59077 1.00180 0.46856
 C1312 C 0.57584 1.01369 0.46563
 C1313 C 0.65925 0.94732 0.48189
 C1314 C 0.67418 0.93542 0.48478
 H1315 H 0.60537 0.97361 0.43773
 H1316 H 0.63672 0.94866 0.44384
 H1317 H 0.62253 0.94622 0.50659
 H1318 H 0.59118 0.97117 0.50048
 H1319 H 0.63144 1.01631 0.47832
 H1320 H 0.66280 0.99137 0.48443
 C1321 C 0.89099 0.98769 0.52799
 C1322 C 0.89267 0.97471 0.50719
 C1323 C 0.87580 0.96124 0.50390
 C1324 C 0.85891 0.96207 0.52174
 C1325 C 0.85244 0.98575 0.52331
 C1326 C 0.86931 0.99921 0.52660
 C1327 C 0.88817 0.97092 0.54574
 C1328 C 0.87130 0.95746 0.54245
 C1329 C 0.90915 1.00218 0.53154
 C1330 C 0.92407 1.01410 0.53447
 C1331 C 0.84075 0.94757 0.51820
 C1332 C 0.82584 0.93564 0.51531
 H1333 H 0.90594 0.97599 0.49602
 H1334 H 0.87462 0.95098 0.48991
 H1335 H 0.83606 0.99143 0.52195
 H1336 H 0.86738 1.01644 0.52806
 H1337 H 0.89851 0.96974 0.55967
 H1338 H 0.86719 0.94473 0.55356
 C1339 C 0.39086 0.48680 0.02793
 C1340 C 0.39107 0.47602 0.00584
 C1341 C 0.37424 0.46251 0.00254
 C1342 C 0.35884 0.46111 0.02164
 C1343 C 0.35210 0.48433 0.02612
 C1344 C 0.36893 0.49783 0.02943
 C1345 C 0.38979 0.46827 0.04404
 C1346 C 0.37296 0.45476 0.04074
 C1347 C 0.40898 0.50133 0.03149
 C1348 C 0.42387 0.51329 0.03442
 C1349 C 0.34072 0.44657 0.01809
 C1350 C 0.32582 0.43462 0.01518
 H1351 H 0.40336 0.47875 -0.00615
 H1352 H 0.37210 0.45367 -0.01228
 H1353 H 0.33556 0.48969 0.02665
 H1354 H 0.36682 0.51477 0.03279
 H1355 H 0.40125 0.46596 0.05691
 H1356 H 0.36999 0.44088 0.05078
 C1357 C 0.51317 0.47184 0.39093
 C1358 C 0.50392 0.48670 0.37368
 C1359 C 0.51741 0.48999 0.35685
 C1360 C 0.53883 0.47809 0.35892
 C1361 C 0.53273 0.45449 0.36219
 C1362 C 0.51924 0.45121 0.37902
 C1363 C 0.53461 0.48206 0.39733
 C1364 C 0.54810 0.48535 0.38050
 C1365 C 0.49864 0.46830 0.40905
 C1366 C 0.48672 0.46539 0.42394
 C1367 C 0.55336 0.48162 0.34081
 C1368 C 0.56530 0.48452 0.32593
 H1369 H 0.48816 0.49400 0.37460
 H1370 H 0.51321 0.50010 0.34335
 H1371 H 0.53850 0.44151 0.35217
 H1372 H 0.51345 0.43541 0.38342
 H1373 H 0.53882 0.48634 0.41364
 H1374 H 0.56387 0.49244 0.38240
 C1375 C 0.01302 -0.02752 0.89044
 C1376 C 0.03004 -0.04510 0.88798
 C1377 C 0.04355 -0.04189 0.87115
 C1378 C 0.03871 -0.02142 0.85842
 C1379 C 0.03922 -0.00329 0.87503
 C1380 C 0.02571 -0.00650 0.89186
 C1381 C 0.00158 -0.02663 0.86870
 C1382 C 0.01509 -0.02342 0.85187
 C1383 C -0.00152 -0.03099 0.90855
 C1384 C -0.01347 -0.03386 0.92344
 C1385 C 0.05326 -0.01798 0.84031
 C1386 C 0.06521 -0.01516 0.82542
 H1387 H 0.03137 -0.05885 0.89854
 H1388 H 0.05645 -0.05289 0.86729
 H1389 H 0.04929 0.01082 0.87368
 H1390 H 0.02421 0.00486 0.90493
 H1391 H -0.01561 -0.02836 0.86670
 H1392 H 0.00947 -0.02240 0.83545
 C1393 C 0.01299 0.02789 0.60914
 C1394 C 0.00596 0.03919 0.62980
 C1395 C 0.01949 0.03587 0.64660
 C1396 C 0.03872 0.02157 0.64109
 C1397 C 0.04946 0.03245 0.62184
 C1398 C 0.03593 0.03577 0.60504
 C1399 C 0.01539 0.00420 0.61530
 C1400 C 0.02892 0.00088 0.63210
 C1401 C -0.00157 0.03147 0.59106
 C1402 C -0.01353 0.03442 0.57620
 C1403 C 0.05328 0.01800 0.65917
 C1404 C 0.06525 0.01508 0.67404
 H1405 H -0.00838 0.04894 0.63112
 H1406 H 0.01674 0.04278 0.66231
 H1407 H 0.06621 0.03713 0.62144
 H1408 H 0.04109 0.04330 0.59025
 H1409 H 0.00718 -0.00881 0.60719
 H1410 H 0.03230 -0.01498 0.63838
 C1411 C 0.51349 0.52807 0.10944
 C1412 C 0.51123 0.54483 0.12729
 C1413 C 0.52471 0.54151 0.14413
 C1414 C 0.53912 0.52177 0.14148
 C1415 C 0.55077 0.52519 0.12012
 C1416 C 0.53730 0.52850 0.10327
 C1417 C 0.51018 0.50639 0.12056
 C1418 C 0.52365 0.50308 0.13741
 C1419 C 0.49899 0.53164 0.09132
 C1420 C 0.48706 0.53456 0.07643
 C1421 C 0.55362 0.51820 0.15962
 C1422 C 0.56553 0.51528 0.17452
 H1423 H 0.50004 0.55813 0.12674
 H1424 H 0.52505 0.55197 0.15802
 H1425 H 0.56808 0.52503 0.11837
 H1426 H 0.54306 0.53118 0.08710
 H1427 H 0.49830 0.49468 0.11564
 H1428 H 0.52331 0.48853 0.14691
 C1429 C 0.48685 -0.02861 0.10942
 C1430 C 0.47250 -0.00881 0.10688
 C1431 C 0.45903 -0.00555 0.12373
 C1432 C 0.46123 -0.02242 0.14147
 C1433 C 0.48503 -0.02209 0.14767
 C1434 C 0.49850 -0.02534 0.13081
 C1435 C 0.47133 -0.04728 0.11336
 C1436 C 0.45786 -0.04402 0.13022
 C1437 C 0.50135 -0.03212 0.09128
 C1438 C 0.51327 -0.03501 0.07637
 C1439 C 0.44673 -0.01892 0.15961
 C1440 C 0.43480 -0.01604 0.17451
 H1441 H 0.47288 0.00173 0.09306
 H1442 H 0.44787 0.00777 0.12435
 H1443 H 0.49080 -0.01952 0.16386
 H1444 H 0.51581 -0.02556 0.13257
 H1445 H 0.47096 -0.06177 0.10376
 H1446 H 0.44594 -0.05573 0.13505
 C1447 C 0.98690 0.47222 0.60910
 C1448 C 0.96313 0.47219 0.60279
 C1449 C 0.94961 0.47541 0.61961
 C1450 C 0.96118 0.47834 0.64109
 C1451 C 0.97691 0.49689 0.63741
 C1452 C 0.99043 0.49368 0.62059
 C1453 C 0.98885 0.45516 0.62668
 C1454 C 0.97533 0.45837 0.64350
 C1455 C 1.00146 0.46875 0.59100
 C1456 C 1.01341 0.46589 0.57611
 C1457 C 0.94663 0.48180 0.65920
 C1458 C 0.93466 0.48465 0.67407
 H1459 H 0.95742 0.46985 0.58654
 H1460 H 0.93232 0.47582 0.61776
 H1461 H 0.97738 0.51129 0.64716
 H1462 H 1.00249 0.50531 0.61593
 H1463 H 0.99988 0.44173 0.62598
 H1464 H 0.97477 0.44770 0.65721
 C1465 C 0.98660 0.52792 0.89047
 C1466 C 0.99600 0.53485 0.86884
 C1467 C 0.98250 0.53155 0.85201
 C1468 C 0.96093 0.52164 0.85846
 C1469 C 0.95182 0.53678 0.87555
 C1470 C 0.96531 0.54008 0.89238
 C1471 C 0.98024 0.50436 0.88742
 C1472 C 0.96674 0.50106 0.87059
 C1473 C 1.00113 0.53148 0.90858
 C1474 C 1.01307 0.53441 0.92346
 C1475 C 0.94641 0.51809 0.84034
 C1476 C 0.93447 0.51518 0.82545
 H1477 H 1.01185 0.54174 0.86692
 H1478 H 0.98679 0.53561 0.83567
 H1479 H 0.93614 0.54425 0.87452
 H1480 H 0.96120 0.55038 0.90577
 H1481 H 0.98584 0.49141 0.89758
 H1482 H 0.96078 0.48528 0.86633
 C1483 C 0.48701 0.02750 0.39088
 C1484 C 0.49639 0.03442 0.36924
 C1485 C 0.48289 0.03111 0.35242
 C1486 C 0.46133 0.02120 0.35888
 C1487 C 0.45221 0.03634 0.37596
 C1488 C 0.46572 0.03966 0.39279
 C1489 C 0.48065 0.00394 0.38784
 C1490 C 0.46715 0.00062 0.37102
 C1491 C 0.50154 0.03107 0.40899
 C1492 C 0.51348 0.03401 0.42387
 C1493 C 0.44679 0.01763 0.34077
 C1494 C 0.43484 0.01471 0.32589
 H1495 H 0.51224 0.04132 0.36731
 H1496 H 0.48717 0.03516 0.33607
 H1497 H 0.43654 0.04381 0.37494
 H1498 H 0.46161 0.04996 0.40617
 H1499 H 0.48626 -0.00900 0.39800
 H1500 H 0.46119 -0.01516 0.36677
   
