data_POSCAR
  _audit_creation_date              2014-09-24
  _audit_creation_method            'ToBaCCo'
  _symmetry_space_group_name_H-M    'P1'
  _symmetry_Int_Tables_number       1
  _symmetry_cell_setting            triclinic
  loop_
  _symmetry_equiv_pos_as_xyz
 x,y,z
_cell_length_a 58.9963
_cell_length_b 59.0001
_cell_length_c 45.2323
_cell_angle_alpha 89.908900
_cell_angle_beta 90.037500
_cell_angle_gamma 89.582600
loop_
  _atom_site_label
  _atom_site_type_symbol
  _atom_site_fract_x
  _atom_site_fract_y
  _atom_site_fract_z
Zr1 Zr -0.03982 0.00197 -0.00347
 O2 O -0.06478 -0.01674 -0.02638
 O3 O -0.05971 0.02214 0.02473
 O4 O -0.05764 -0.01979 0.02519
 O5 O -0.03289 0.04209 -0.05873
 O6 O -0.02976 -0.03921 0.04974
 O7 O -0.05927 0.02263 -0.03200
 O8 O -0.03353 0.04131 0.05202
 O9 O -0.02075 0.00169 0.03557
 O10 O -0.02157 0.03221 -0.00322
 O11 O -0.01950 -0.02741 -0.00584
 O12 O -0.02084 0.00195 -0.04306
 Zr13 Zr 0.03919 0.00301 -0.00528
 Zr14 Zr 0.00074 -0.02659 0.03219
 Zr15 Zr -0.00141 0.03160 -0.04105
 Zr16 Zr -0.00173 0.03134 0.03471
 O17 O -0.00046 0.02927 -0.08771
 O18 O -0.00085 0.02497 0.08085
 O19 O 0.01904 0.03270 -0.00305
 O20 O 0.01996 0.00310 0.03388
 O21 O 0.02119 -0.02743 -0.00561
 O22 O 0.01986 0.00330 -0.04405
 C23 C -0.05400 0.03616 0.04508
 C24 C -0.05341 0.03689 -0.05208
 C25 C -0.05065 -0.03458 0.04410
 O26 O 0.00250 -0.02435 0.07882
 O27 O 0.03219 -0.03969 0.04656
 O28 O 0.05862 -0.01929 0.02120
 C29 C 0.05272 -0.03465 0.03984
 O30 O -0.02883 -0.03893 -0.06369
 Zr31 Zr 0.00108 -0.02634 -0.04351
 O32 O 0.05908 -0.01748 -0.03307
 O33 O 0.00026 -0.06227 0.02760
 O34 O 0.00136 -0.06195 -0.03702
 O35 O 0.00269 -0.02161 -0.08995
 O36 O 0.03295 -0.03871 -0.05770
 C37 C 0.05341 -0.03309 -0.05133
 O38 O 0.06419 0.02061 0.01902
 O39 O -0.00367 0.06726 -0.03682
 O40 O 0.05699 0.02633 -0.03181
 O41 O 0.02906 0.04663 -0.05511
 O42 O -0.00440 0.06704 0.03016
 O43 O 0.02802 0.04705 0.05116
 C44 C 0.04996 0.04212 -0.04930
 H45 H -0.03139 0.04589 -0.00324
 H46 H 0.02989 0.00334 0.05153
 H47 H 0.02921 0.00407 -0.06217
 H48 H -0.02893 -0.04122 -0.00648
 H49 H -0.00540 0.03918 0.09096
 H50 H 0.00235 -0.04009 0.08648
 H51 H 0.00126 -0.06872 0.04781
 H52 H 0.00557 -0.06905 -0.05610
 H53 H -0.00818 0.07332 0.04988
 H54 H -0.00444 0.07354 -0.05713
 H55 H -0.00042 0.04502 -0.09538
 H56 H 0.00667 -0.03645 -0.09886
 H57 H 0.02407 0.05661 0.06841
 H58 H 0.07920 0.01556 0.01151
 H59 H -0.07981 -0.01160 -0.01901
 H60 H -0.02485 -0.05167 -0.07698
 Zr61 Zr 0.53912 0.50299 0.49480
 O62 O 0.56405 0.52066 0.51913
 O63 O 0.55909 0.48243 0.46721
 O64 O 0.55847 0.48077 0.52151
 O65 O 0.52914 0.54643 0.44467
 O66 O 0.53198 0.46045 0.54685
 O67 O 0.55700 0.52621 0.46822
 O68 O 0.53303 0.46114 0.44255
 O69 O 0.52112 0.47254 0.49455
 O70 O 0.51989 0.50316 0.45595
 O71 O 0.51977 0.50319 0.53387
 O72 O 0.51897 0.53268 0.49679
 Zr73 Zr 0.46011 0.50195 0.49623
 Zr74 Zr 0.50056 0.47349 0.53225
 Zr75 Zr 0.49862 0.53146 0.45869
 Zr76 Zr 0.50112 0.47351 0.45655
 O77 O 0.49636 0.56714 0.46275
 O78 O 0.50142 0.43793 0.46324
 O79 O 0.47921 0.50181 0.45674
 O80 O 0.48043 0.47256 0.49411
 O81 O 0.47906 0.50179 0.53537
 O82 O 0.47835 0.53219 0.49642
 C83 C 0.55347 0.46678 0.44897
 C84 C 0.55002 0.54193 0.45059
 C85 C 0.55253 0.46546 0.54020
 O86 O 0.50011 0.43779 0.52785
 O87 O 0.47000 0.46090 0.54969
 O88 O 0.44221 0.48027 0.52488
 C89 C 0.44913 0.46552 0.54390
 O90 O 0.52778 0.54719 0.55100
 Zr91 Zr 0.49809 0.53143 0.53445
 O92 O 0.44013 0.52219 0.52425
 O93 O 0.50216 0.47590 0.57887
 O94 O 0.49885 0.52524 0.58063
 O95 O 0.49541 0.56712 0.52965
 O96 O 0.46624 0.54143 0.55158
 C97 C 0.44579 0.53625 0.54457
 O98 O 0.43521 0.48317 0.47330
 O99 O 0.49970 0.52900 0.41205
 O100 O 0.44075 0.52250 0.46750
 O101 O 0.46719 0.54190 0.44081
 O102 O 0.50284 0.47808 0.41009
 O103 O 0.47127 0.46084 0.43631
 C104 C 0.44665 0.53670 0.44737
 H105 H 0.52930 0.50387 0.43786
 H106 H 0.47101 0.45875 0.49349
 H107 H 0.46852 0.54586 0.49629
 H108 H 0.52965 0.50349 0.55157
 H109 H 0.50569 0.43077 0.44422
 H110 H 0.50105 0.43141 0.54810
 H111 H 0.50199 0.46018 0.58662
 H112 H 0.49426 0.53948 0.59063
 H113 H 0.50684 0.46321 0.40128
 H114 H 0.49975 0.54472 0.40430
 H115 H 0.49566 0.57336 0.44241
 H116 H 0.49153 0.57347 0.54929
 H117 H 0.47529 0.44804 0.42314
 H118 H 0.42016 0.48833 0.48057
 H119 H 0.57908 0.51560 0.51171
 H120 H 0.52375 0.55689 0.56808
 Zr121 Zr 0.53944 -0.00261 0.49823
 O122 O 0.56448 0.01522 0.47426
 O123 O 0.55928 -0.02215 0.52738
 O124 O 0.55749 0.01997 0.52550
 O125 O 0.53202 -0.04423 0.44512
 O126 O 0.52981 0.04030 0.54906
 O127 O 0.55863 -0.02419 0.47066
 O128 O 0.53305 -0.04042 0.55566
 O129 O 0.52052 -0.00107 0.53731
 O130 O 0.52097 -0.03269 0.50015
 O131 O 0.51926 0.02679 0.49434
 O132 O 0.52029 -0.00359 0.45875
 Zr133 Zr 0.46037 -0.00318 0.49679
 Zr134 Zr 0.49917 0.02723 0.53250
 Zr135 Zr 0.50067 -0.03303 0.46240
 Zr136 Zr 0.50127 -0.03059 0.53809
 O137 O 0.49957 -0.03211 0.41566
 O138 O 0.50075 -0.02294 0.58387
 O139 O 0.48034 -0.03290 0.50052
 O140 O 0.47976 -0.00226 0.53585
 O141 O 0.47859 0.02710 0.49477
 O142 O 0.47955 -0.00471 0.45799
 C143 C 0.55354 -0.03562 0.54838
 C144 C 0.55261 -0.03897 0.45136
 C145 C 0.55066 0.03545 0.54350
 O146 O 0.49763 0.02627 0.57922
 O147 O 0.46785 0.04097 0.54628
 O148 O 0.44120 0.02004 0.52213
 C149 C 0.44726 0.03591 0.53988
 O150 O 0.52838 0.03678 0.43589
 Zr151 Zr 0.49854 0.02479 0.45686
 O152 O 0.44049 0.01666 0.46807
 O153 O 0.49982 0.06275 0.52605
 O154 O 0.49849 0.06057 0.46133
 O155 O 0.49675 0.01852 0.41076
 O156 O 0.46668 0.03699 0.44225
 C157 C 0.44621 0.03173 0.44901
 O158 O 0.43534 -0.01989 0.52214
 O159 O 0.50270 -0.06855 0.46860
 O160 O 0.44232 -0.02713 0.47158
 O161 O 0.47005 -0.04825 0.44928
 O162 O 0.50352 -0.06642 0.53524
 O163 O 0.47150 -0.04550 0.55575
 C164 C 0.44919 -0.04346 0.45491
 H165 H 0.53069 -0.04642 0.50078
 H166 H 0.46989 -0.00192 0.55354
 H167 H 0.47012 -0.00593 0.43997
 H168 H 0.52876 0.04051 0.49290
 H169 H 0.50521 -0.03690 0.59468
 H170 H 0.49789 0.04221 0.58607
 H171 H 0.49889 0.06978 0.54590
 H172 H 0.49424 0.06711 0.44190
 H173 H 0.50742 -0.07223 0.55519
 H174 H 0.50336 -0.07544 0.44865
 H175 H 0.49934 -0.04806 0.40887
 H176 H 0.49256 0.03301 0.40100
 H177 H 0.47552 -0.05474 0.57331
 H178 H 0.42035 -0.01497 0.51441
 H179 H 0.57949 0.01017 0.48183
 H180 H 0.52430 0.04883 0.42154
 Zr181 Zr -0.03966 0.49684 -0.00599
 O182 O -0.06466 0.48010 0.01937
 O183 O -0.05957 0.51676 -0.03457
 O184 O -0.05877 0.52001 0.01951
 O185 O -0.03010 0.45183 -0.05363
 O186 O -0.03205 0.54088 0.04363
 O187 O -0.05777 0.47293 -0.03121
 O188 O -0.03343 0.53711 -0.06039
 O189 O -0.02143 0.52710 -0.00798
 O190 O -0.02056 0.49535 -0.04486
 O191 O -0.02020 0.49768 0.03301
 O192 O -0.01970 0.46710 -0.00240
 Zr193 Zr 0.03941 0.49734 -0.00481
 Zr194 Zr -0.00077 0.52715 0.02969
 Zr195 Zr 0.00055 0.46702 -0.04059
 Zr196 Zr -0.00156 0.52484 -0.04596
 O197 O 0.00256 0.43149 -0.03448
 O198 O -0.00156 0.56061 -0.04142
 O199 O 0.02019 0.49644 -0.04423
 O200 O 0.01925 0.52676 -0.00854
 O201 O 0.02056 0.49883 0.03435
 O202 O 0.02093 0.46728 -0.00291
 C203 C -0.05391 0.53189 -0.05359
 C204 C -0.05097 0.45660 -0.04793
 C205 C -0.05266 0.53584 0.03730
 O206 O -0.00012 0.56268 0.02335
 O207 O 0.02991 0.54017 0.04619
 O208 O 0.05753 0.51987 0.02247
 C209 C 0.05075 0.53531 0.04055
 O210 O -0.02846 0.45439 0.05279
 Zr211 Zr 0.00129 0.46932 0.03510
 O212 O 0.05929 0.47775 0.02424
 O213 O -0.00221 0.52611 0.07640
 O214 O 0.00085 0.47690 0.08091
 O215 O 0.00354 0.43350 0.03216
 O216 O 0.03310 0.45947 0.05257
 C217 C 0.05357 0.46427 0.04524
 O218 O 0.06443 0.51519 -0.02881
 O219 O -0.00064 0.46800 -0.08733
 O220 O 0.05852 0.47578 -0.03249
 O221 O 0.03187 0.45582 -0.05799
 O222 O -0.00344 0.51861 -0.09206
 O223 O 0.02823 0.53689 -0.06699
 C224 C 0.05248 0.46102 -0.05182
 H225 H -0.03004 0.49417 -0.06285
 H226 H 0.02875 0.54048 -0.00998
 H227 H 0.03064 0.45353 -0.00234
 H228 H -0.03003 0.49799 0.05074
 H229 H -0.00585 0.56719 -0.06082
 H230 H -0.00100 0.56968 0.04323
 H231 H -0.00193 0.54203 0.08331
 H232 H 0.00532 0.46293 0.09166
 H233 H -0.00771 0.53309 -0.10178
 H234 H -0.00090 0.45205 -0.09414
 H235 H 0.00319 0.42463 -0.05445
 H236 H 0.00746 0.42766 0.05209
 H237 H 0.02411 0.54889 -0.08140
 H238 H 0.07944 0.51011 -0.02129
 H239 H -0.07967 0.48505 0.01170
 H240 H -0.02441 0.44513 0.07032
 Zr241 Zr 0.04027 0.50370 0.50316
 O242 O 0.06671 0.48721 0.52672
 O243 O 0.05845 0.52439 0.47396
 O244 O 0.05969 0.48249 0.47539
 O245 O 0.03030 0.54466 0.55653
 O246 O 0.03340 0.46065 0.45197
 O247 O 0.05809 0.52623 0.53060
 O248 O 0.03079 0.54113 0.44592
 O249 O 0.02121 0.50116 0.46427
 O250 O 0.01968 0.53265 0.50155
 O251 O 0.02236 0.47315 0.50704
 O252 O 0.02143 0.50347 0.54285
 Zr253 Zr -0.03858 0.49964 0.50540
 Zr254 Zr 0.00202 0.47165 0.46912
 Zr255 Zr -0.00030 0.53171 0.53952
 Zr256 Zr -0.00011 0.52950 0.46380
 O257 O -0.00104 0.53064 0.58627
 O258 O -0.00041 0.52186 0.41801
 O259 O -0.02086 0.53048 0.50161
 O260 O -0.01950 0.49997 0.46612
 O261 O -0.01822 0.47048 0.50709
 O262 O -0.01925 0.50220 0.54399
 C263 C 0.05162 0.53748 0.45302
 C264 C 0.05117 0.54060 0.55003
 C265 C 0.05387 0.46680 0.45726
 O266 O -0.00002 0.47251 0.42244
 O267 O -0.02834 0.45617 0.45561
 O268 O -0.05626 0.47549 0.48013
 C269 C -0.04921 0.46006 0.46222
 O270 O 0.03267 0.46372 0.56540
 Zr271 Zr 0.00184 0.47386 0.54477
 O272 O -0.05673 0.47861 0.53426
 O273 O 0.00538 0.43625 0.47548
 O274 O 0.00442 0.43818 0.54003
 O275 O -0.00009 0.47975 0.59094
 O276 O -0.02891 0.45981 0.55971
 C277 C -0.04976 0.46390 0.55322
 O278 O -0.06497 0.51496 0.48046
 O279 O -0.00089 0.56728 0.53344
 O280 O -0.05815 0.52235 0.53095
 O281 O -0.03187 0.54505 0.55302
 O282 O -0.00040 0.56538 0.46669
 O283 O -0.03101 0.54274 0.44655
 C284 C -0.05236 0.53901 0.54759
 H285 H 0.02839 0.54692 0.50088
 H286 H -0.02945 0.49910 0.44854
 H287 H -0.02861 0.50281 0.56213
 H288 H 0.03287 0.46002 0.50828
 H289 H 0.00299 0.53605 0.40718
 H290 H 0.00133 0.45661 0.41557
 H291 H 0.00487 0.42921 0.45561
 H292 H 0.00078 0.43131 0.55945
 H293 H 0.00290 0.57140 0.44670
 H294 H -0.00058 0.57415 0.55341
 H295 H -0.00219 0.54655 0.59313
 H296 H -0.00298 0.46498 0.60064
 H297 H -0.02780 0.55209 0.42887
 H298 H -0.07952 0.50913 0.48829
 H299 H 0.08126 0.49312 0.51900
 H300 H 0.02967 0.45122 0.57948
 Zr301 Zr 0.46142 -0.00040 0.00520
 O302 O 0.43510 0.01494 -0.01985
 O303 O 0.44320 -0.02148 0.03390
 O304 O 0.44384 -0.02453 -0.02020
 O305 O 0.46795 0.04496 0.05295
 O306 O 0.47184 -0.04381 -0.04461
 O307 O 0.44176 0.02227 0.03069
 O308 O 0.47096 -0.04029 0.05945
 O309 O 0.48181 -0.02954 0.00694
 O310 O 0.48063 0.00213 0.04390
 O311 O 0.48062 -0.00001 -0.03398
 O312 O 0.47913 0.03046 0.00157
 Zr313 Zr 0.54027 0.00372 0.00337
 Zr314 Zr 0.50215 -0.02831 -0.03092
 Zr315 Zr 0.49957 0.03166 0.03958
 Zr316 Zr 0.50174 -0.02619 0.04473
 O317 O 0.49896 0.06724 0.03359
 O318 O 0.50438 -0.06186 0.03995
 O319 O 0.52132 0.00344 0.04297
 O320 O 0.52237 -0.02684 0.00711
 O321 O 0.52134 0.00121 -0.03562
 O322 O 0.51966 0.03266 0.00172
 C323 C 0.45012 -0.03623 0.05285
 C324 C 0.44748 0.03891 0.04741
 C325 C 0.45096 -0.03994 -0.03811
 O326 O 0.50550 -0.06372 -0.02462
 O327 O 0.53360 -0.03930 -0.04789
 O328 O 0.55980 -0.01746 -0.02430
 C329 C 0.55405 -0.03315 -0.04247
 O330 O 0.46912 0.04276 -0.05352
 Zr331 Zr 0.49999 0.02954 -0.03614
 O332 O 0.55852 0.02446 -0.02569
 O333 O 0.50027 -0.02740 -0.07762
 O334 O 0.49985 0.02196 -0.08195
 O335 O 0.49965 0.06541 -0.03319
 O336 O 0.53094 0.04123 -0.05382
 C337 C 0.55175 0.03760 -0.04662
 O338 O 0.56665 -0.01275 0.02706
 O339 O 0.49871 0.03053 0.08633
 O340 O 0.55799 0.02626 0.03093
 O341 O 0.53011 0.04464 0.05674
 O342 O 0.49964 -0.02034 0.09091
 O343 O 0.53252 -0.03632 0.06552
 C344 C 0.55101 0.04061 0.05033
 H345 H 0.47121 0.00272 0.06199
 H346 H 0.53288 -0.03996 0.00838
 H347 H 0.52835 0.04694 0.00111
 H348 H 0.47072 -0.00087 -0.05162
 H349 H 0.50069 -0.06874 0.05935
 H350 H 0.50507 -0.07074 -0.04451
 H351 H 0.50165 -0.04328 -0.08451
 H352 H 0.50327 0.03616 -0.09273
 H353 H 0.49673 -0.03513 0.10055
 H354 H 0.49751 0.04643 0.09321
 H355 H 0.49918 0.07409 0.05358
 H356 H 0.50300 0.07146 -0.05316
 H357 H 0.52948 -0.04881 0.07958
 H358 H 0.58122 -0.00683 0.01943
 H359 H 0.42053 0.00909 -0.01211
 H360 H 0.47238 0.05213 -0.07118
 Zr361 Zr 0.45969 0.49611 0.00340
 O362 O 0.43323 0.51311 0.02619
 O363 O 0.44157 0.47451 -0.02468
 O364 O 0.44009 0.51648 -0.02536
 O365 O 0.46993 0.45677 0.05887
 O366 O 0.46624 0.53769 -0.05005
 O367 O 0.44201 0.47421 0.03194
 O368 O 0.46931 0.45704 -0.05169
 O369 O 0.47867 0.49755 -0.03564
 O370 O 0.48044 0.46724 0.00337
 O371 O 0.47748 0.52683 0.00554
 O372 O 0.47858 0.49763 0.04302
 Zr373 Zr 0.53851 0.50056 0.00526
 Zr374 Zr 0.49773 0.52726 -0.03249
 Zr375 Zr 0.50044 0.46942 0.04124
 Zr376 Zr 0.50015 0.46933 -0.03454
 O377 O 0.50118 0.47202 0.08788
 O378 O 0.50038 0.47551 -0.08073
 O379 O 0.52093 0.46956 0.00327
 O380 O 0.51938 0.49899 -0.03394
 O381 O 0.51801 0.52966 0.00535
 O382 O 0.51929 0.49911 0.04402
 C383 C 0.44848 0.46081 -0.04483
 C384 C 0.44904 0.46044 0.05208
 C385 C 0.44581 0.53167 -0.04432
 O386 O 0.49962 0.52489 -0.07908
 O387 O 0.52801 0.54243 -0.04695
 O388 O 0.55603 0.52400 -0.02138
 C389 C 0.54890 0.53882 -0.04015
 O390 O 0.46720 0.53785 0.06341
 Zr391 Zr 0.49806 0.52735 0.04324
 O392 O 0.55661 0.52253 0.03279
 O393 O 0.49431 0.56283 -0.02821
 O394 O 0.49515 0.56285 0.03662
 O395 O 0.50028 0.52292 0.08970
 O396 O 0.52877 0.54211 0.05706
 C397 C 0.54963 0.53790 0.05073
 O398 O 0.56493 0.48464 -0.01888
 O399 O 0.50120 0.43368 0.03731
 O400 O 0.55823 0.47865 0.03192
 O401 O 0.53208 0.45660 0.05537
 O402 O 0.50061 0.43356 -0.02972
 O403 O 0.53115 0.45574 -0.05093
 C404 C 0.55254 0.46248 0.04948
 H405 H 0.47182 0.45291 0.00347
 H406 H 0.52930 0.49935 -0.05157
 H407 H 0.52871 0.49910 0.06214
 H408 H 0.46692 0.53994 0.00609
 H409 H 0.49706 0.46096 -0.09071
 H410 H 0.49814 0.54053 -0.08689
 H411 H 0.49471 0.56922 -0.04848
 H412 H 0.49876 0.57029 0.05566
 H413 H 0.49740 0.42694 -0.04940
 H414 H 0.50103 0.42747 0.05767
 H415 H 0.50255 0.45637 0.09567
 H416 H 0.50310 0.53802 0.09849
 H417 H 0.52803 0.44590 -0.06814
 H418 H 0.57947 0.49076 -0.01140
 H419 H 0.41869 0.50691 0.01885
 H420 H 0.47015 0.55069 0.07691
 Zr421 Zr 0.03847 -0.00001 0.50427
 O422 O 0.06440 -0.01630 0.47967
 O423 O 0.05715 0.02184 0.53132
 O424 O 0.05591 0.02319 0.47720
 O425 O 0.03218 -0.04369 0.55482
 O426 O 0.02778 0.04186 0.45214
 O427 O 0.05828 -0.02201 0.53070
 O428 O 0.02981 0.04178 0.55606
 O429 O 0.01829 0.02931 0.50463
 O430 O 0.01970 -0.00112 0.54343
 O431 O 0.01885 -0.00149 0.46548
 O432 O 0.02053 -0.03082 0.50280
 Zr433 Zr -0.04041 -0.00359 0.50409
 Zr434 Zr -0.00248 0.02702 0.46723
 Zr435 Zr 0.00051 -0.03062 0.54120
 Zr436 Zr -0.00123 0.02734 0.54294
 O437 O 0.00089 -0.06637 0.53745
 O438 O -0.00381 0.06284 0.53619
 O439 O -0.02102 -0.00218 0.54331
 O440 O -0.02227 0.02693 0.50567
 O441 O -0.02191 -0.00249 0.46464
 O442 O -0.01998 -0.03269 0.50377
 C443 C 0.05054 0.03733 0.54933
 C444 C 0.05263 -0.03803 0.54850
 C445 C 0.04871 0.03807 0.45854
 O446 O -0.00552 0.06263 0.47139
 O447 O -0.03406 0.03767 0.45019
 O448 O -0.06013 0.01685 0.47558
 C449 C -0.05449 0.03188 0.45637
 O450 O 0.02989 -0.04489 0.44837
 Zr451 Zr -0.00073 -0.03094 0.46542
 O452 O -0.05911 -0.02509 0.47658
 O453 O -0.00110 0.02453 0.42061
 O454 O -0.00110 -0.02482 0.41922
 O455 O -0.00054 -0.06669 0.47039
 O456 O -0.03194 -0.04301 0.44908
 C457 C -0.05264 -0.03898 0.45641
 O458 O -0.06637 0.01379 0.52734
 O459 O 0.00180 -0.02788 0.58781
 O460 O -0.05798 -0.02523 0.53308
 O461 O -0.02991 -0.04293 0.55947
 O462 O 0.00149 0.02305 0.58937
 O463 O -0.03174 0.03822 0.56366
 C464 C -0.05085 -0.03906 0.55310
 H465 H 0.02933 -0.00118 0.56137
 H466 H -0.03268 0.04016 0.50635
 H467 H -0.02874 -0.04693 0.50414
 H468 H 0.02856 -0.00128 0.44764
 H469 H 0.00009 0.07030 0.55512
 H470 H -0.00531 0.06896 0.45109
 H471 H -0.00254 0.04016 0.41276
 H472 H -0.00475 -0.03934 0.40936
 H473 H 0.00456 0.03815 0.59801
 H474 H 0.00309 -0.04353 0.59566
 H475 H 0.00090 -0.07252 0.55785
 H476 H -0.00407 -0.07333 0.45083
 H477 H -0.02850 0.05109 0.57700
 H478 H -0.08108 0.00774 0.52036
 H479 H 0.07910 -0.01032 0.48681
 H480 H 0.02642 -0.05466 0.43119
 Zr481 Zr 0.75189 0.21053 0.25252
 O482 O 0.73330 0.18555 0.27564
 O483 O 0.77184 0.19062 0.22408
 O484 O 0.72985 0.19279 0.22419
 O485 O 0.79245 0.21735 0.30722
 O486 O 0.71025 0.22072 0.19997
 O487 O 0.77268 0.19104 0.28083
 O488 O 0.79086 0.21678 0.19652
 O489 O 0.75131 0.22962 0.21348
 O490 O 0.78216 0.22871 0.25180
 O491 O 0.72257 0.23091 0.25536
 O492 O 0.75223 0.22949 0.29210
 Zr493 Zr 0.75311 0.28952 0.25431
 Zr494 Zr 0.72310 0.25118 0.21730
 Zr495 Zr 0.78190 0.24884 0.28963
 Zr496 Zr 0.78100 0.24859 0.21387
 O497 O 0.78006 0.24981 0.33633
 O498 O 0.77423 0.24938 0.16784
 O499 O 0.78273 0.26932 0.25161
 O500 O 0.75281 0.27033 0.21514
 O501 O 0.72264 0.27159 0.25512
 O502 O 0.75368 0.27017 0.29307
 C503 C 0.78574 0.19632 0.20356
 C504 C 0.78711 0.19685 0.30071
 C505 C 0.71489 0.19982 0.20554
 O506 O 0.72496 0.25302 0.17066
 O507 O 0.70987 0.28268 0.20328
 O508 O 0.73059 0.30903 0.22828
 C509 C 0.71500 0.30319 0.20998
 O510 O 0.71149 0.22161 0.31344
 Zr511 Zr 0.72399 0.25146 0.29300
 O512 O 0.73291 0.30947 0.28236
 O513 O 0.68745 0.25072 0.22240
 O514 O 0.68833 0.25182 0.28704
 O515 O 0.72910 0.25307 0.33936
 O516 O 0.71180 0.28337 0.30729
 C517 C 0.71740 0.30381 0.30082
 O518 O 0.77058 0.31446 0.22968
 O519 O 0.81751 0.24650 0.28476
 O520 O 0.77667 0.30727 0.28046
 O521 O 0.79712 0.27927 0.30339
 O522 O 0.81674 0.24595 0.21787
 O523 O 0.79656 0.27831 0.19705
 C524 C 0.79261 0.30018 0.29766
 H525 H 0.79582 0.21887 0.25164
 H526 H 0.75291 0.28028 0.19749
 H527 H 0.75462 0.27952 0.31118
 H528 H 0.70875 0.22151 0.25623
 H529 H 0.78835 0.24480 0.15752
 H530 H 0.70916 0.25286 0.16324
 H531 H 0.68084 0.25178 0.20230
 H532 H 0.68139 0.25612 0.30619
 H533 H 0.82286 0.24218 0.19806
 H534 H 0.82399 0.24574 0.30496
 H535 H 0.79588 0.24986 0.34370
 H536 H 0.71436 0.25714 0.34848
 H537 H 0.80593 0.27435 0.17962
 H538 H 0.76566 0.32948 0.23725
 H539 H 0.73837 0.17054 0.26819
 H540 H 0.69885 0.22563 0.32689
 Zr541 Zr 0.74865 0.78944 0.75516
 O542 O 0.76691 0.81415 0.77912
 O543 O 0.72860 0.80963 0.72703
 O544 O 0.77065 0.80788 0.72754
 O545 O 0.70799 0.78134 0.80936
 O546 O 0.79058 0.78053 0.70279
 O547 O 0.72754 0.80826 0.78368
 O548 O 0.70988 0.78374 0.69877
 O549 O 0.74951 0.77101 0.71567
 O550 O 0.71856 0.77097 0.75381
 O551 O 0.77815 0.76929 0.75772
 O552 O 0.74839 0.76983 0.79429
 Zr553 Zr 0.74821 0.71042 0.75507
 Zr554 Zr 0.77792 0.74967 0.71918
 Zr555 Zr 0.71892 0.75023 0.79117
 Zr556 Zr 0.72000 0.75174 0.71544
 O557 O 0.72065 0.74853 0.83784
 O558 O 0.72686 0.75173 0.66943
 O559 O 0.71840 0.73037 0.75266
 O560 O 0.74840 0.73026 0.71637
 O561 O 0.77850 0.72864 0.75651
 O562 O 0.74734 0.72912 0.79428
 C563 C 0.71478 0.80414 0.70632
 C564 C 0.71311 0.80200 0.80331
 C565 C 0.78577 0.80129 0.70891
 O566 O 0.77618 0.74869 0.67248
 O567 O 0.79140 0.71855 0.70434
 O568 O 0.77095 0.69158 0.72864
 C569 C 0.78646 0.69788 0.71048
 O570 O 0.78904 0.77777 0.81603
 Zr571 Zr 0.77684 0.74812 0.79486
 O572 O 0.76858 0.69023 0.78279
 O573 O 0.81354 0.75029 0.72454
 O574 O 0.81252 0.74819 0.78918
 O575 O 0.77152 0.74578 0.84112
 O576 O 0.78931 0.71612 0.80854
 C577 C 0.78396 0.69573 0.80153
 O578 O 0.73106 0.68570 0.72977
 O579 O 0.68330 0.75227 0.78613
 O580 O 0.72478 0.69202 0.78066
 O581 O 0.70399 0.71942 0.80414
 O582 O 0.68423 0.75400 0.71930
 O583 O 0.70475 0.72215 0.69785
 C584 C 0.70874 0.69865 0.79794
 H585 H 0.70480 0.78068 0.75378
 H586 H 0.74843 0.72061 0.69849
 H587 H 0.74645 0.71947 0.81216
 H588 H 0.79188 0.77880 0.75891
 H589 H 0.71272 0.75633 0.65915
 H590 H 0.79200 0.74906 0.66516
 H591 H 0.82022 0.74970 0.70445
 H592 H 0.81943 0.74372 0.80831
 H593 H 0.67812 0.75805 0.69956
 H594 H 0.67676 0.75266 0.80630
 H595 H 0.70482 0.74828 0.84511
 H596 H 0.78624 0.74167 0.85031
 H597 H 0.69534 0.72631 0.68052
 H598 H 0.73614 0.67061 0.73699
 H599 H 0.76174 0.82926 0.77203
 H600 H 0.80158 0.77363 0.82961
 Zr601 Zr 0.25284 0.29100 0.74694
 O602 O 0.23579 0.31756 0.72431
 O603 O 0.27398 0.30901 0.77571
 O604 O 0.23186 0.30998 0.77558
 O605 O 0.29300 0.28190 0.69219
 O606 O 0.21066 0.28327 0.79924
 O607 O 0.27481 0.30927 0.71913
 O608 O 0.29154 0.28117 0.80259
 O609 O 0.25117 0.27153 0.78560
 O610 O 0.28196 0.27059 0.74726
 O611 O 0.22239 0.27285 0.74373
 O612 O 0.25206 0.27258 0.70695
 Zr613 Zr 0.24941 0.21213 0.74353
 Zr614 Zr 0.22175 0.25213 0.78138
 Zr615 Zr 0.28051 0.25103 0.70900
 Zr616 Zr 0.27966 0.25039 0.78477
 O617 O 0.27854 0.25083 0.66229
 O618 O 0.27291 0.24968 0.83080
 O619 O 0.28015 0.23007 0.74660
 O620 O 0.25026 0.23080 0.78310
 O621 O 0.22007 0.23229 0.74312
 O622 O 0.25109 0.23186 0.70517
 C623 C 0.28765 0.30203 0.79592
 C624 C 0.28893 0.30267 0.69920
 C625 C 0.21649 0.30385 0.79403
 O626 O 0.22364 0.24968 0.82798
 O627 O 0.20676 0.22148 0.79488
 O628 O 0.22582 0.19400 0.76923
 C629 C 0.21068 0.20072 0.78777
 O630 O 0.21179 0.28370 0.68591
 Zr631 Zr 0.22259 0.25274 0.70566
 O632 O 0.22804 0.19410 0.71508
 O633 O 0.18619 0.25516 0.77637
 O634 O 0.18698 0.25500 0.71145
 O635 O 0.22774 0.25129 0.65929
 O636 O 0.20848 0.22203 0.69080
 C637 C 0.21287 0.20115 0.69681
 O638 O 0.26536 0.18563 0.76760
 O639 O 0.31619 0.25062 0.71390
 O640 O 0.27189 0.19302 0.71701
 O641 O 0.29388 0.21972 0.69454
 O642 O 0.31548 0.25030 0.78080
 O643 O 0.29335 0.21937 0.80106
 C644 C 0.28818 0.19912 0.69991
 H645 H 0.29619 0.27937 0.74761
 H646 H 0.24980 0.22066 0.80055
 H647 H 0.25146 0.22268 0.68687
 H648 H 0.20915 0.28324 0.74306
 H649 H 0.28729 0.25305 0.84118
 H650 H 0.20789 0.25084 0.83547
 H651 H 0.17957 0.25438 0.79648
 H652 H 0.17983 0.25155 0.69216
 H653 H 0.32184 0.25333 0.80068
 H654 H 0.32269 0.25117 0.69371
 H655 H 0.29431 0.24977 0.65488
 H656 H 0.21283 0.24831 0.65001
 H657 H 0.30290 0.22241 0.81860
 H658 H 0.25953 0.17110 0.75971
 H659 H 0.24175 0.33208 0.73206
 H660 H 0.19925 0.28070 0.67192
 Zr661 Zr 0.24547 0.70977 0.24525
 O662 O 0.26219 0.68391 0.22103
 O663 O 0.22446 0.69097 0.27336
 O664 O 0.26637 0.68968 0.27275
 O665 O 0.20508 0.72099 0.19141
 O666 O 0.28788 0.71541 0.29771
 O667 O 0.22315 0.69259 0.21674
 O668 O 0.20741 0.71802 0.30196
 O669 O 0.24755 0.72795 0.28486
 O670 O 0.21653 0.73037 0.24691
 O671 O 0.27608 0.72775 0.24277
 O672 O 0.24622 0.72951 0.20626
 Zr673 Zr 0.24960 0.78865 0.24599
 Zr674 Zr 0.27712 0.74721 0.28145
 Zr675 Zr 0.21796 0.75118 0.20969
 Zr676 Zr 0.21922 0.74930 0.28542
 O677 O 0.21968 0.75283 0.16301
 O678 O 0.22622 0.74860 0.33140
 O679 O 0.21871 0.77089 0.24834
 O680 O 0.24880 0.76869 0.28454
 O681 O 0.27876 0.76829 0.24427
 O682 O 0.24754 0.77022 0.20664
 C683 C 0.21114 0.69736 0.29424
 C684 C 0.20899 0.69996 0.19727
 C685 C 0.28181 0.69508 0.29150
 O686 O 0.27565 0.74821 0.32816
 O687 O 0.29254 0.77724 0.29635
 O688 O 0.27348 0.80572 0.27246
 C689 C 0.28876 0.79826 0.29041
 O690 O 0.28616 0.71877 0.18421
 Zr691 Zr 0.27587 0.74912 0.20579
 O692 O 0.27108 0.80743 0.21849
 O693 O 0.31261 0.74392 0.27590
 O694 O 0.31148 0.74622 0.21115
 O695 O 0.27053 0.75232 0.15959
 O696 O 0.29029 0.78021 0.19261
 C697 C 0.28616 0.80090 0.19983
 O698 O 0.23391 0.81441 0.27150
 O699 O 0.18232 0.75180 0.21487
 O700 O 0.22729 0.80882 0.22045
 O701 O 0.20492 0.78305 0.19684
 O702 O 0.18339 0.74967 0.28162
 O703 O 0.20580 0.77982 0.30343
 C704 C 0.21090 0.80341 0.20309
 H705 H 0.20224 0.72168 0.24696
 H706 H 0.24946 0.77824 0.30250
 H707 H 0.24720 0.78000 0.18884
 H708 H 0.28921 0.71726 0.24147
 H709 H 0.21188 0.74500 0.34173
 H710 H 0.29144 0.74662 0.33539
 H711 H 0.31938 0.74393 0.29595
 H712 H 0.31856 0.75029 0.19202
 H713 H 0.17710 0.74586 0.30131
 H714 H 0.17571 0.75198 0.19472
 H715 H 0.20388 0.75422 0.15578
 H716 H 0.28543 0.75547 0.15040
 H717 H 0.19609 0.77622 0.32063
 H718 H 0.23984 0.82914 0.26439
 H719 H 0.25620 0.66918 0.22806
 H720 H 0.29866 0.72211 0.17032
 Zr721 Zr 0.25308 0.78947 0.75428
 O722 O 0.27051 0.81444 0.72965
 O723 O 0.23288 0.80941 0.78235
 O724 O 0.23055 0.80896 0.72825
 O725 O 0.29713 0.77925 0.80332
 O726 O 0.20983 0.78259 0.70329
 O727 O 0.27666 0.80723 0.78040
 O728 O 0.21180 0.78331 0.80729
 O729 O 0.22262 0.77152 0.75514
 O730 O 0.25370 0.77013 0.79306
 O731 O 0.25276 0.77028 0.71512
 O732 O 0.28271 0.76929 0.75156
 Zr733 Zr 0.25190 0.71048 0.75252
 Zr734 Zr 0.22306 0.75110 0.71734
 Zr735 Zr 0.28192 0.74881 0.78958
 Zr736 Zr 0.22402 0.75141 0.79303
 O737 O 0.31753 0.74651 0.78466
 O738 O 0.18835 0.75172 0.78714
 O739 O 0.25226 0.72944 0.79210
 O740 O 0.22257 0.73084 0.75540
 O741 O 0.25128 0.72957 0.71348
 O742 O 0.28216 0.72868 0.75175
 C743 C 0.21738 0.80376 0.80081
 C744 C 0.29261 0.80016 0.79758
 C745 C 0.21496 0.80310 0.70995
 O746 O 0.18742 0.75064 0.72250
 O747 O 0.21023 0.72064 0.70002
 O748 O 0.22986 0.69272 0.72422
 C749 C 0.21489 0.69974 0.70558
 O750 O 0.29651 0.77829 0.69702
 Zr751 Zr 0.28096 0.74856 0.71383
 O752 O 0.27183 0.69058 0.72403
 O753 O 0.22488 0.75293 0.67068
 O754 O 0.27415 0.74937 0.66780
 O755 O 0.31671 0.74591 0.71775
 O756 O 0.29080 0.71676 0.69644
 C757 C 0.28569 0.69629 0.70348
 O758 O 0.23335 0.68551 0.77569
 O759 O 0.28011 0.74976 0.83628
 O760 O 0.27275 0.69100 0.78077
 O761 O 0.29253 0.71732 0.80713
 O762 O 0.22918 0.75305 0.83938
 O763 O 0.21155 0.72155 0.81351
 C764 C 0.28721 0.69682 0.80061
 H765 H 0.25464 0.77949 0.81116
 H766 H 0.20876 0.72144 0.75628
 H767 H 0.29583 0.71885 0.75156
 H768 H 0.25284 0.78022 0.69747
 H769 H 0.18143 0.75602 0.80630
 H770 H 0.18079 0.75166 0.70240
 H771 H 0.20907 0.75276 0.66328
 H772 H 0.28826 0.74480 0.65746
 H773 H 0.21445 0.75713 0.84852
 H774 H 0.29593 0.74985 0.84364
 H775 H 0.32403 0.74576 0.80485
 H776 H 0.32280 0.74216 0.69792
 H777 H 0.19896 0.72558 0.82702
 H778 H 0.23841 0.67049 0.76824
 H779 H 0.26557 0.82945 0.73723
 H780 H 0.30585 0.77435 0.67956
 Zr781 Zr 0.24725 0.21033 0.25362
 O782 O 0.23015 0.18557 0.22832
 O783 O 0.26755 0.19019 0.28149
 O784 O 0.27005 0.19143 0.22735
 O785 O 0.20290 0.21943 0.30245
 O786 O 0.29057 0.21834 0.20305
 O787 O 0.22376 0.19198 0.27916
 O788 O 0.28821 0.21614 0.30723
 O789 O 0.27754 0.22854 0.25512
 O790 O 0.24629 0.22911 0.29276
 O791 O 0.24754 0.23009 0.21486
 O792 O 0.21745 0.23028 0.25101
 Zr793 Zr 0.24771 0.28935 0.25344
 Zr794 Zr 0.27705 0.24949 0.21772
 Zr795 Zr 0.21788 0.25021 0.28945
 Zr796 Zr 0.27579 0.24811 0.29339
 O797 O 0.18227 0.25228 0.28426
 O798 O 0.31148 0.24817 0.28787
 O799 O 0.24734 0.26982 0.29263
 O800 O 0.27720 0.26920 0.25619
 O801 O 0.24866 0.27084 0.21402
 O802 O 0.21762 0.27089 0.25204
 C803 C 0.28287 0.19573 0.30028
 C804 C 0.20767 0.19864 0.29635
 C805 C 0.28561 0.19769 0.20924
 O806 O 0.31267 0.25012 0.22322
 O807 O 0.28977 0.28031 0.20127
 O808 O 0.26980 0.30772 0.22585
 C809 C 0.28496 0.30109 0.20730
 O810 O 0.20395 0.22198 0.19612
 Zr811 Zr 0.21915 0.25159 0.21373
 O812 O 0.22774 0.30950 0.22517
 O813 O 0.27543 0.24842 0.17102
 O814 O 0.22613 0.25150 0.16775
 O815 O 0.18337 0.25384 0.21747
 O816 O 0.20908 0.28355 0.19692
 C817 C 0.21398 0.30396 0.20441
 O818 O 0.26592 0.31413 0.27736
 O819 O 0.21949 0.24859 0.33614
 O820 O 0.22657 0.30823 0.28187
 O821 O 0.20694 0.28136 0.30754
 O822 O 0.27037 0.24583 0.33965
 O823 O 0.28790 0.27780 0.31453
 C824 C 0.21210 0.30200 0.30148
 H825 H 0.24535 0.21949 0.31067
 H826 H 0.29093 0.27870 0.25741
 H827 H 0.20387 0.28061 0.25193
 H828 H 0.24761 0.22041 0.19700
 H829 H 0.31835 0.24374 0.30705
 H830 H 0.31939 0.24949 0.20316
 H831 H 0.29127 0.24876 0.16376
 H832 H 0.21202 0.25609 0.15739
 H833 H 0.28509 0.24177 0.34890
 H834 H 0.20364 0.24834 0.34335
 H835 H 0.17569 0.25269 0.30441
 H836 H 0.17730 0.25789 0.19771
 H837 H 0.30043 0.27370 0.32814
 H838 H 0.26077 0.32922 0.27019
 H839 H 0.23521 0.17048 0.23562
 H840 H 0.19455 0.22613 0.17876
 Zr841 Zr 0.75045 0.71121 0.24364
 O842 O 0.76625 0.68442 0.26732
 O843 O 0.72897 0.69355 0.21494
 O844 O 0.72676 0.69297 0.26906
 O845 O 0.79506 0.71901 0.19493
 O846 O 0.70776 0.72034 0.29501
 O847 O 0.77284 0.69223 0.21686
 O848 O 0.70958 0.72178 0.19104
 O849 O 0.72121 0.73152 0.24342
 O850 O 0.75231 0.73127 0.20558
 O851 O 0.75131 0.72954 0.28349
 O852 O 0.78128 0.72897 0.24707
 Zr853 Zr 0.75426 0.79002 0.24821
 Zr854 Zr 0.72290 0.75102 0.28197
 Zr855 Zr 0.78182 0.75026 0.20980
 Zr856 Zr 0.72391 0.75228 0.20627
 O857 O 0.81748 0.74966 0.21487
 O858 O 0.68830 0.75477 0.21193
 O859 O 0.75347 0.77195 0.20796
 O860 O 0.72372 0.77206 0.24463
 O861 O 0.75241 0.77021 0.28656
 O862 O 0.78329 0.76950 0.24836
 C863 C 0.71381 0.70083 0.19682
 C864 C 0.78922 0.69839 0.19992
 C865 C 0.71161 0.69962 0.28765
 O866 O 0.68737 0.75425 0.27691
 O867 O 0.71193 0.78206 0.30024
 O868 O 0.73326 0.80887 0.27697
 C869 C 0.71784 0.80266 0.29532
 O870 O 0.79442 0.71769 0.30112
 Zr871 Zr 0.78082 0.74896 0.28554
 O872 O 0.77524 0.80767 0.27755
 O873 O 0.72472 0.74819 0.32854
 O874 O 0.77409 0.74757 0.33155
 O875 O 0.81664 0.74900 0.28167
 O876 O 0.79250 0.77951 0.30420
 C877 C 0.78864 0.80045 0.29794
 O878 O 0.73743 0.81686 0.22585
 O879 O 0.77999 0.75045 0.16308
 O880 O 0.77640 0.80842 0.22079
 O881 O 0.79445 0.78121 0.19345
 O882 O 0.72911 0.75110 0.15990
 O883 O 0.71340 0.78347 0.18688
 C884 C 0.79048 0.80193 0.20075
 H885 H 0.75265 0.72224 0.18715
 H886 H 0.71053 0.78252 0.24406
 H887 H 0.79754 0.77825 0.24895
 H888 H 0.75077 0.71925 0.30078
 H889 H 0.68117 0.75155 0.19255
 H890 H 0.68072 0.75335 0.29699
 H891 H 0.70897 0.74935 0.33601
 H892 H 0.78850 0.75071 0.34199
 H893 H 0.71419 0.74830 0.15055
 H894 H 0.79578 0.74939 0.15574
 H895 H 0.82404 0.75033 0.19473
 H896 H 0.82295 0.75180 0.30164
 H897 H 0.70089 0.78068 0.17278
 H898 H 0.74343 0.83128 0.23385
 H899 H 0.76036 0.67000 0.25919
 H900 H 0.80415 0.72049 0.31856
 Zr901 Zr 0.74962 0.28955 0.74731
 O902 O 0.73399 0.31537 0.77278
 O903 O 0.77104 0.30826 0.71967
 O904 O 0.77357 0.30666 0.77362
 O905 O 0.70483 0.28385 0.69834
 O906 O 0.79268 0.27822 0.79752
 O907 O 0.72725 0.30966 0.72178
 O908 O 0.79020 0.28098 0.69383
 O909 O 0.77877 0.26917 0.74556
 O910 O 0.74747 0.27103 0.70804
 O911 O 0.74890 0.26966 0.78595
 O912 O 0.71873 0.27179 0.74985
 Zr913 Zr 0.74547 0.21067 0.74687
 Zr914 Zr 0.77721 0.24817 0.78282
 Zr915 Zr 0.71789 0.25200 0.71127
 Zr916 Zr 0.77579 0.24993 0.70715
 O917 O 0.68226 0.25264 0.71660
 O918 O 0.81142 0.24702 0.71235
 O919 O 0.74614 0.23032 0.70781
 O920 O 0.77608 0.22863 0.74422
 O921 O 0.74764 0.22893 0.78642
 O922 O 0.71654 0.23127 0.74857
 C923 C 0.78608 0.30169 0.70099
 C924 C 0.71083 0.30422 0.70449
 C925 C 0.78890 0.29923 0.79151
 O926 O 0.81268 0.24485 0.77714
 O927 O 0.78799 0.21640 0.79916
 O928 O 0.76642 0.19063 0.77437
 C929 C 0.78190 0.19606 0.79305
 O930 O 0.70594 0.28086 0.80489
 Zr931 Zr 0.71932 0.25028 0.78700
 O932 O 0.72451 0.19193 0.77512
 O933 O 0.77585 0.24929 0.82953
 O934 O 0.72643 0.24969 0.83296
 O935 O 0.68347 0.25062 0.78340
 O936 O 0.70754 0.21904 0.80370
 C937 C 0.71124 0.19836 0.79603
 O938 O 0.76215 0.18476 0.72269
 O939 O 0.71950 0.25356 0.66458
 O940 O 0.72310 0.19342 0.71852
 O941 O 0.70497 0.22177 0.69315
 O942 O 0.77031 0.25303 0.66097
 O943 O 0.78605 0.21953 0.68566
 C944 C 0.70889 0.20076 0.69907
 H945 H 0.74709 0.28077 0.69021
 H946 H 0.78921 0.21814 0.74290
 H947 H 0.70225 0.22259 0.74870
 H948 H 0.74960 0.27925 0.80386
 H949 H 0.81844 0.25104 0.69316
 H950 H 0.81950 0.24492 0.79717
 H951 H 0.79166 0.24771 0.83670
 H952 H 0.71212 0.24612 0.84336
 H953 H 0.78517 0.25621 0.65170
 H954 H 0.70367 0.25492 0.65740
 H955 H 0.67560 0.25277 0.69648
 H956 H 0.67725 0.24690 0.80315
 H957 H 0.79844 0.22286 0.67159
 H958 H 0.75617 0.17004 0.72979
 H959 H 0.73991 0.33008 0.76558
 H960 H 0.69631 0.27732 0.82220
 C961 C 0.06850 0.45003 0.93432
 C962 C 0.08321 0.43947 0.92182
 C963 C 0.10058 0.42635 0.90724
 C964 C 0.09828 0.42067 0.87736
 C965 C 0.11458 0.40698 0.86359
 C966 C 0.13340 0.39871 0.87955
 C967 C 0.13572 0.40479 0.90947
 C968 C 0.11941 0.41850 0.92320
 C969 C 0.15006 0.38319 0.86528
 C970 C 0.15860 0.36420 0.88066
 C971 C 0.17326 0.34886 0.86672
 C972 C 0.17967 0.35231 0.83728
 C973 C 0.17164 0.37138 0.82197
 C974 C 0.15695 0.38673 0.83586
 C975 C 0.19345 0.33565 0.82232
 C976 C 0.20436 0.32133 0.80956
 H977 H 0.08372 0.42654 0.86483
 H978 H 0.11212 0.40236 0.84066
 H979 H 0.15013 0.39893 0.92227
 H980 H 0.12136 0.42278 0.94634
 H981 H 0.15340 0.36081 0.90318
 H982 H 0.17924 0.33408 0.87872
 H983 H 0.17645 0.37421 0.79915
 H984 H 0.15091 0.40133 0.82356
 C985 C 0.42891 0.54823 0.43156
 C986 C 0.41414 0.55842 0.41864
 C987 C 0.39674 0.57117 0.40357
 C988 C 0.37662 0.57688 0.41826
 C989 C 0.36028 0.59041 0.40425
 C990 C 0.36387 0.59845 0.37533
 C991 C 0.38398 0.59227 0.36057
 C992 C 0.40029 0.57875 0.37463
 C993 C 0.34721 0.61397 0.36102
 C994 C 0.34231 0.61210 0.33066
 C995 C 0.32774 0.62766 0.31688
 C996 C 0.31784 0.64524 0.33324
 C997 C 0.32222 0.64696 0.36355
 C998 C 0.33677 0.63143 0.37738
 C999 C 0.30433 0.66230 0.31863
 C1000 C 0.29366 0.67704 0.30630
 H1001 H 0.37371 0.57112 0.44069
 H1002 H 0.34487 0.59464 0.41606
 H1003 H 0.38741 0.59845 0.33848
 H1004 H 0.41587 0.57455 0.36312
 H1005 H 0.34984 0.59869 0.31755
 H1006 H 0.32451 0.62620 0.29338
 H1007 H 0.31478 0.66060 0.37638
 H1008 H 0.34042 0.63353 0.40067
 C1009 C 0.93249 0.94807 0.56880
 C1010 C 0.91877 0.93655 0.58149
 C1011 C 0.90282 0.92202 0.59616
 C1012 C 0.90635 0.89855 0.59592
 C1013 C 0.89106 0.88421 0.61009
 C1014 C 0.87197 0.89315 0.62475
 C1015 C 0.86845 0.91677 0.62470
 C1016 C 0.88382 0.93112 0.61051
 C1017 C 0.85599 0.87780 0.64018
 C1018 C 0.83240 0.88139 0.63846
 C1019 C 0.81747 0.86649 0.65246
 C1020 C 0.82593 0.84790 0.66840
 C1021 C 0.84935 0.84437 0.67048
 C1022 C 0.86427 0.85919 0.65650
 C1023 C 0.81081 0.83214 0.68239
 C1024 C 0.79891 0.81835 0.69434
 H1025 H 0.92094 0.89131 0.58474
 H1026 H 0.89406 0.86609 0.60931
 H1027 H 0.85403 0.92417 0.63603
 H1028 H 0.88092 0.94927 0.61082
 H1029 H 0.82551 0.89543 0.62581
 H1030 H 0.79936 0.86936 0.65067
 H1031 H 0.85609 0.83009 0.68284
 H1032 H 0.88232 0.85617 0.65863
 C1033 C 0.56786 0.05369 0.06537
 C1034 C 0.58197 0.06510 0.07747
 C1035 C 0.59869 0.07920 0.09137
 C1036 C 0.60951 0.09606 0.07493
 C1037 C 0.62522 0.11032 0.08845
 C1038 C 0.63036 0.10790 0.11869
 C1039 C 0.61961 0.09070 0.13496
 C1040 C 0.60385 0.07647 0.12138
 C1041 C 0.64639 0.12365 0.13331
 C1042 C 0.66200 0.11568 0.15453
 C1043 C 0.67668 0.13069 0.16873
 C1044 C 0.67595 0.15384 0.16190
 C1045 C 0.66059 0.16189 0.14069
 C1046 C 0.64593 0.14693 0.12648
 C1047 C 0.69037 0.16953 0.17721
 C1048 C 0.70191 0.18311 0.19010
 H1049 H 0.60568 0.09830 0.05167
 H1050 H 0.63343 0.12318 0.07522
 H1051 H 0.62298 0.08858 0.15834
 H1052 H 0.59553 0.06352 0.13435
 H1053 H 0.66295 0.09783 0.16003
 H1054 H 0.68848 0.12428 0.18514
 H1055 H 0.65976 0.17979 0.13539
 H1056 H 0.63390 0.15366 0.11060
 C1057 C 0.92766 0.04361 0.44105
 C1058 C 0.91303 0.05421 0.42839
 C1059 C 0.89606 0.06767 0.41354
 C1060 C 0.87749 0.07625 0.42931
 C1061 C 0.86196 0.09081 0.41549
 C1062 C 0.86483 0.09704 0.38568
 C1063 C 0.88328 0.08791 0.36985
 C1064 C 0.89879 0.07336 0.38372
 C1065 C 0.84927 0.11372 0.37149
 C1066 C 0.84246 0.11102 0.34189
 C1067 C 0.82885 0.12742 0.32811
 C1068 C 0.82184 0.14670 0.34371
 C1069 C 0.82820 0.14936 0.37330
 C1070 C 0.84180 0.13298 0.38713
 C1071 C 0.80900 0.16420 0.32896
 C1072 C 0.79873 0.17904 0.31627
 H1073 H 0.87524 0.07199 0.45243
 H1074 H 0.84777 0.09732 0.42815
 H1075 H 0.88615 0.09259 0.34701
 H1076 H 0.91319 0.06695 0.37136
 H1077 H 0.84770 0.09626 0.32937
 H1078 H 0.82403 0.12520 0.30518
 H1079 H 0.82299 0.16428 0.38554
 H1080 H 0.84702 0.13573 0.40978
 C1081 C 0.43230 0.45281 0.55953
 C1082 C 0.41853 0.44154 0.57254
 C1083 C 0.40256 0.42747 0.58798
 C1084 C 0.41014 0.41302 0.61052
 C1085 C 0.39494 0.39861 0.62479
 C1086 C 0.37191 0.39842 0.61668
 C1087 C 0.36440 0.41318 0.59417
 C1088 C 0.37965 0.42760 0.57992
 C1089 C 0.35598 0.38250 0.63124
 C1090 C 0.33955 0.37094 0.61458
 C1091 C 0.32524 0.35522 0.62812
 C1092 C 0.32711 0.35089 0.65845
 C1093 C 0.34317 0.36253 0.67528
 C1094 C 0.35749 0.37824 0.66181
 C1095 C 0.31308 0.33405 0.67229
 C1096 C 0.30178 0.31979 0.68430
 H1097 H 0.42786 0.41267 0.61681
 H1098 H 0.40133 0.38724 0.64171
 H1099 H 0.34674 0.41363 0.58768
 H1100 H 0.37360 0.43871 0.56249
 H1101 H 0.33814 0.37363 0.59097
 H1102 H 0.31294 0.34623 0.61485
 H1103 H 0.34475 0.35933 0.69878
 H1104 H 0.36973 0.38707 0.67531
 C1105 C 0.57181 0.95479 0.94257
 C1106 C 0.58640 0.94397 0.93025
 C1107 C 0.60335 0.93028 0.91583
 C1108 C 0.60161 0.92574 0.88557
 C1109 C 0.61712 0.91110 0.87196
 C1110 C 0.63456 0.90073 0.88849
 C1111 C 0.63643 0.90576 0.91880
 C1112 C 0.62091 0.92042 0.93236
 C1113 C 0.65014 0.88408 0.87441
 C1114 C 0.65630 0.86400 0.88932
 C1115 C 0.67000 0.84775 0.87551
 C1116 C 0.67775 0.85135 0.84667
 C1117 C 0.67202 0.87142 0.83182
 C1118 C 0.65832 0.88770 0.84558
 C1119 C 0.69077 0.83407 0.83186
 C1120 C 0.70122 0.81946 0.81907
 H1121 H 0.58798 0.93315 0.87262
 H1122 H 0.61503 0.90735 0.84869
 H1123 H 0.64984 0.89827 0.93203
 H1124 H 0.62238 0.92378 0.95582
 H1125 H 0.65002 0.86056 0.91135
 H1126 H 0.67421 0.83221 0.88713
 H1127 H 0.67792 0.87437 0.80947
 H1128 H 0.65410 0.90309 0.83367
 C1129 C 0.06767 0.54872 0.05503
 C1130 C 0.08141 0.56075 0.06689
 C1131 C 0.09725 0.57592 0.08071
 C1132 C 0.09829 0.59852 0.07138
 C1133 C 0.11299 0.61363 0.08525
 C1134 C 0.12691 0.60638 0.10877
 C1135 C 0.12597 0.58354 0.11778
 C1136 C 0.11120 0.56844 0.10385
 C1137 C 0.14197 0.62271 0.12411
 C1138 C 0.16399 0.61633 0.13300
 C1139 C 0.17805 0.63182 0.14744
 C1140 C 0.17028 0.65385 0.15324
 C1141 C 0.14841 0.66033 0.14453
 C1142 C 0.13436 0.64490 0.13009
 C1143 C 0.18451 0.66982 0.16847
 C1144 C 0.19595 0.68346 0.18144
 H1145 H 0.08760 0.60452 0.05346
 H1146 H 0.11354 0.63098 0.07749
 H1147 H 0.13626 0.57748 0.13601
 H1148 H 0.11049 0.55101 0.11135
 H1149 H 0.17044 0.59947 0.12845
 H1150 H 0.19495 0.62661 0.15408
 H1151 H 0.14216 0.67728 0.14905
 H1152 H 0.11739 0.65026 0.12399
 C1153 C 0.43335 0.95060 0.06773
 C1154 C 0.41962 0.93899 0.08015
 C1155 C 0.40371 0.92454 0.09487
 C1156 C 0.41134 0.90447 0.10817
 C1157 C 0.39597 0.89002 0.12195
 C1158 C 0.37272 0.89547 0.12259
 C1159 C 0.36521 0.91574 0.10925
 C1160 C 0.38064 0.93019 0.09548
 C1161 C 0.35644 0.87985 0.13678
 C1162 C 0.33545 0.87522 0.12336
 C1163 C 0.32056 0.85973 0.13618
 C1164 C 0.32645 0.84876 0.16257
 C1165 C 0.34713 0.85350 0.17630
 C1166 C 0.36203 0.86895 0.16352
 C1167 C 0.31165 0.83218 0.17529
 C1168 C 0.29973 0.81801 0.18627
 H1169 H 0.42916 0.89990 0.10768
 H1170 H 0.40221 0.87438 0.13163
 H1171 H 0.34744 0.92048 0.10968
 H1172 H 0.37459 0.94572 0.08526
 H1173 H 0.33081 0.88316 0.10260
 H1174 H 0.30462 0.85610 0.12535
 H1175 H 0.35181 0.84512 0.19676
 H1176 H 0.37792 0.87241 0.17457
 C1177 C 0.57138 0.45451 0.43470
 C1178 C 0.58622 0.44377 0.42282
 C1179 C 0.60358 0.43042 0.40875
 C1180 C 0.60150 0.42466 0.37890
 C1181 C 0.61763 0.41056 0.36559
 C1182 C 0.63605 0.40198 0.38204
 C1183 C 0.63822 0.40823 0.41192
 C1184 C 0.62206 0.42235 0.42518
 C1185 C 0.65233 0.38582 0.36840
 C1186 C 0.65992 0.36669 0.38426
 C1187 C 0.67416 0.35071 0.37088
 C1188 C 0.68103 0.35366 0.34154
 C1189 C 0.67393 0.37285 0.32574
 C1190 C 0.65967 0.38886 0.33908
 C1191 C 0.69445 0.33645 0.32729
 C1192 C 0.70520 0.32169 0.31528
 H1193 H 0.58717 0.43072 0.36605
 H1194 H 0.61531 0.40581 0.34268
 H1195 H 0.65236 0.40212 0.42504
 H1196 H 0.62382 0.42672 0.44832
 H1197 H 0.65431 0.36371 0.40671
 H1198 H 0.67946 0.33584 0.38323
 H1199 H 0.67914 0.37527 0.30300
 H1200 H 0.65432 0.40355 0.32644
 C1201 C 0.92987 0.54300 0.93317
 C1202 C 0.91508 0.55377 0.92113
 C1203 C 0.89781 0.56729 0.90703
 C1204 C 0.87882 0.57450 0.92308
 C1205 C 0.86280 0.58892 0.90998
 C1206 C 0.86561 0.59635 0.88063
 C1207 C 0.88454 0.58863 0.86451
 C1208 C 0.90053 0.57421 0.87766
 C1209 C 0.84942 0.61278 0.86725
 C1210 C 0.84289 0.61080 0.83744
 C1211 C 0.82863 0.62703 0.82447
 C1212 C 0.82070 0.64541 0.84111
 C1213 C 0.82677 0.64734 0.87090
 C1214 C 0.84102 0.63113 0.88391
 C1215 C 0.80717 0.66284 0.82732
 C1216 C 0.79631 0.67773 0.81564
 H1217 H 0.87657 0.56925 0.94585
 H1218 H 0.84827 0.59434 0.92283
 H1219 H 0.88736 0.59428 0.84204
 H1220 H 0.91525 0.56884 0.86511
 H1221 H 0.84886 0.59673 0.82414
 H1222 H 0.82404 0.62540 0.80138
 H1223 H 0.82083 0.66159 0.88392
 H1224 H 0.84598 0.63333 0.90677
 C1225 C 0.06757 0.05100 0.56277
 C1226 C 0.08157 0.06306 0.57379
 C1227 C 0.09781 0.07810 0.58667
 C1228 C 0.09762 0.10100 0.57867
 C1229 C 0.11282 0.11595 0.59177
 C1230 C 0.12840 0.10816 0.61309
 C1231 C 0.12868 0.08503 0.62071
 C1232 C 0.11343 0.07009 0.60757
 C1233 C 0.14390 0.12425 0.62775
 C1234 C 0.16670 0.11836 0.63304
 C1235 C 0.18121 0.13367 0.64689
 C1236 C 0.17307 0.15496 0.65561
 C1237 C 0.15043 0.16094 0.65049
 C1238 C 0.13592 0.14570 0.63665
 C1239 C 0.18777 0.17079 0.66995
 C1240 C 0.19955 0.18446 0.68212
 H1241 H 0.08561 0.10733 0.56245
 H1242 H 0.11243 0.13361 0.58518
 H1243 H 0.14033 0.07863 0.63730
 H1244 H 0.11363 0.05238 0.61394
 H1245 H 0.17334 0.10205 0.62615
 H1246 H 0.19875 0.12893 0.65075
 H1247 H 0.14397 0.17736 0.65729
 H1248 H 0.11838 0.15057 0.63327
 C1249 C 0.07158 0.45476 0.44215
 C1250 C 0.08610 0.44396 0.42968
 C1251 C 0.10298 0.43029 0.41506
 C1252 C 0.10100 0.42572 0.38483
 C1253 C 0.11642 0.41109 0.37104
 C1254 C 0.13402 0.40078 0.38736
 C1255 C 0.13614 0.40585 0.41762
 C1256 C 0.12069 0.42050 0.43136
 C1257 C 0.14951 0.38413 0.37309
 C1258 C 0.15584 0.36408 0.38797
 C1259 C 0.16943 0.34782 0.37400
 C1260 C 0.17692 0.35139 0.34504
 C1261 C 0.17104 0.37142 0.33022
 C1262 C 0.15744 0.38771 0.34414
 C1263 C 0.18986 0.33411 0.33010
 C1264 C 0.20026 0.31949 0.31724
 H1265 H 0.08725 0.43308 0.37205
 H1266 H 0.11415 0.40729 0.34782
 H1267 H 0.14966 0.39841 0.43069
 H1268 H 0.12235 0.42390 0.45479
 H1269 H 0.14976 0.36067 0.41011
 H1270 H 0.17378 0.33231 0.38561
 H1271 H 0.17674 0.37435 0.30778
 H1272 H 0.15309 0.40307 0.33224
 C1273 C 0.42800 0.54335 0.94019
 C1274 C 0.41340 0.55393 0.92747
 C1275 C 0.39643 0.56740 0.91261
 C1276 C 0.37767 0.57565 0.92827
 C1277 C 0.36213 0.59024 0.91451
 C1278 C 0.36519 0.59681 0.88486
 C1279 C 0.38383 0.58800 0.86911
 C1280 C 0.39935 0.57342 0.88293
 C1281 C 0.34960 0.61353 0.87078
 C1282 C 0.34303 0.61110 0.84104
 C1283 C 0.32938 0.62754 0.82740
 C1284 C 0.32210 0.64659 0.84327
 C1285 C 0.32823 0.64898 0.87298
 C1286 C 0.34187 0.63256 0.88667
 C1287 C 0.30921 0.66414 0.82867
 C1288 C 0.29889 0.67900 0.81609
 H1289 H 0.37527 0.57113 0.95128
 H1290 H 0.34779 0.59649 0.92710
 H1291 H 0.38683 0.59295 0.84640
 H1292 H 0.41390 0.56727 0.87065
 H1293 H 0.34849 0.59652 0.82832
 H1294 H 0.32475 0.62553 0.80438
 H1295 H 0.32281 0.66373 0.88542
 H1296 H 0.34689 0.63511 0.90944
 C1297 C 0.56754 0.04892 0.55796
 C1298 C 0.58124 0.06102 0.56977
 C1299 C 0.59704 0.07629 0.58351
 C1300 C 0.59765 0.09898 0.57452
 C1301 C 0.61234 0.11416 0.58829
 C1302 C 0.62667 0.10687 0.61136
 C1303 C 0.62614 0.08395 0.62004
 C1304 C 0.61139 0.06878 0.60622
 C1305 C 0.64175 0.12327 0.62657
 C1306 C 0.66397 0.11709 0.63480
 C1307 C 0.67805 0.13263 0.64910
 C1308 C 0.67011 0.15452 0.65541
 C1309 C 0.64803 0.16079 0.64735
 C1310 C 0.63396 0.14531 0.63306
 C1311 C 0.68436 0.17054 0.67048
 C1312 C 0.69583 0.18422 0.68335
 H1313 H 0.58665 0.10499 0.55694
 H1314 H 0.61256 0.13159 0.58078
 H1315 H 0.63677 0.07786 0.63794
 H1316 H 0.61101 0.05127 0.61346
 H1317 H 0.67056 0.10034 0.62986
 H1318 H 0.69511 0.12758 0.65523
 H1319 H 0.64164 0.17763 0.65227
 H1320 H 0.61684 0.15050 0.62747
 C1321 C 0.93260 0.95265 0.05982
 C1322 C 0.91900 0.94129 0.07298
 C1323 C 0.90333 0.92703 0.08864
 C1324 C 0.91157 0.91071 0.10846
 C1325 C 0.89660 0.89621 0.12297
 C1326 C 0.87312 0.89781 0.11784
 C1327 C 0.86496 0.91440 0.09804
 C1328 C 0.87998 0.92892 0.08354
 C1329 C 0.85734 0.88189 0.13269
 C1330 C 0.83911 0.87234 0.11708
 C1331 C 0.82489 0.85660 0.13074
 C1332 C 0.82866 0.85025 0.16017
 C1333 C 0.84654 0.85989 0.17600
 C1334 C 0.86078 0.87561 0.16239
 C1335 C 0.81464 0.83341 0.17403
 C1336 C 0.80334 0.81912 0.18600
 H1337 H 0.92962 0.90900 0.11244
 H1338 H 0.90346 0.88342 0.13773
 H1339 H 0.84696 0.91623 0.09389
 H1340 H 0.87341 0.94149 0.06824
 H1341 H 0.83618 0.87662 0.09410
 H1342 H 0.81115 0.84918 0.11824
 H1343 H 0.84960 0.85513 0.19880
 H1344 H 0.87446 0.88287 0.17513
 C1345 C 0.92881 0.04849 0.93228
 C1346 C 0.91403 0.05877 0.91949
 C1347 C 0.89663 0.07163 0.90457
 C1348 C 0.87674 0.07768 0.91954
 C1349 C 0.86042 0.09132 0.90565
 C1350 C 0.86382 0.09913 0.87659
 C1351 C 0.88371 0.09262 0.86156
 C1352 C 0.90000 0.07898 0.87549
 C1353 C 0.84720 0.11476 0.86238
 C1354 C 0.84198 0.11275 0.83214
 C1355 C 0.82745 0.12838 0.81842
 C1356 C 0.81793 0.14619 0.83474
 C1357 C 0.82263 0.14805 0.86496
 C1358 C 0.83713 0.13244 0.87872
 C1359 C 0.80443 0.16328 0.82017
 C1360 C 0.79377 0.17804 0.80786
 H1361 H 0.87397 0.07210 0.94208
 H1362 H 0.84518 0.09582 0.91768
 H1363 H 0.88700 0.09861 0.83935
 H1364 H 0.91540 0.07452 0.86377
 H1365 H 0.84922 0.09916 0.81905
 H1366 H 0.82396 0.12680 0.79500
 H1367 H 0.81547 0.16187 0.87775
 H1368 H 0.84104 0.13466 0.90192
 C1369 C 0.06807 0.55365 0.56503
 C1370 C 0.08220 0.56502 0.57713
 C1371 C 0.09894 0.57908 0.59108
 C1372 C 0.11015 0.59561 0.57452
 C1373 C 0.12587 0.60984 0.58808
 C1374 C 0.13060 0.60774 0.61847
 C1375 C 0.11945 0.59086 0.63486
 C1376 C 0.10370 0.57665 0.62124
 C1377 C 0.14662 0.62348 0.63312
 C1378 C 0.16185 0.61560 0.65487
 C1379 C 0.17648 0.63063 0.66912
 C1380 C 0.17609 0.65370 0.66182
 C1381 C 0.16113 0.66165 0.64008
 C1382 C 0.14651 0.64668 0.62581
 C1383 C 0.19045 0.66942 0.67719
 C1384 C 0.20195 0.68302 0.69011
 H1385 H 0.10663 0.59761 0.55114
 H1386 H 0.13439 0.62245 0.57477
 H1387 H 0.12251 0.58899 0.65835
 H1388 H 0.09506 0.56396 0.63429
 H1389 H 0.16253 0.59781 0.66074
 H1390 H 0.18798 0.62430 0.68594
 H1391 H 0.16056 0.67950 0.63440
 H1392 H 0.13478 0.65334 0.60951
 C1393 C 0.57027 0.94892 0.43615
 C1394 C 0.58498 0.93831 0.42372
 C1395 C 0.60233 0.92513 0.40920
 C1396 C 0.60038 0.92000 0.37911
 C1397 C 0.61665 0.90627 0.36535
 C1398 C 0.63509 0.89742 0.38153
 C1399 C 0.63707 0.90295 0.41168
 C1400 C 0.62079 0.91670 0.42539
 C1401 C 0.65171 0.88187 0.36723
 C1402 C 0.65975 0.86252 0.38227
 C1403 C 0.67436 0.84717 0.36824
 C1404 C 0.68120 0.85098 0.33905
 C1405 C 0.67368 0.87041 0.32409
 C1406 C 0.65905 0.88577 0.33807
 C1407 C 0.69492 0.83435 0.32395
 C1408 C 0.70577 0.82006 0.31104
 H1409 H 0.58610 0.92632 0.36639
 H1410 H 0.61445 0.90208 0.34223
 H1411 H 0.65120 0.89664 0.42465
 H1412 H 0.62247 0.92056 0.44870
 H1413 H 0.65421 0.85886 0.40458
 H1414 H 0.67995 0.83211 0.37997
 H1415 H 0.67883 0.87352 0.30147
 H1416 H 0.65341 0.90066 0.32604
 C1417 C 0.43231 0.44745 0.06750
 C1418 C 0.41852 0.43589 0.08000
 C1419 C 0.40246 0.42136 0.09447
 C1420 C 0.40541 0.39784 0.09316
 C1421 C 0.39004 0.38353 0.10723
 C1422 C 0.37146 0.39254 0.12288
 C1423 C 0.36850 0.41622 0.12389
 C1424 C 0.38394 0.43054 0.10979
 C1425 C 0.35544 0.37721 0.13829
 C1426 C 0.33192 0.38139 0.13759
 C1427 C 0.31693 0.36656 0.15164
 C1428 C 0.32529 0.34746 0.16660
 C1429 C 0.34865 0.34332 0.16764
 C1430 C 0.36362 0.35807 0.15361
 C1431 C 0.31010 0.33180 0.18069
 C1432 C 0.29815 0.31809 0.19270
 H1433 H 0.41961 0.39055 0.08123
 H1434 H 0.39259 0.36537 0.10563
 H1435 H 0.35449 0.42367 0.13600
 H1436 H 0.38150 0.44873 0.11096
 H1437 H 0.32510 0.39586 0.12572
 H1438 H 0.29887 0.36990 0.15065
 H1439 H 0.35531 0.32863 0.17925
 H1440 H 0.38164 0.35457 0.15496
 C1441 C 0.56637 0.55172 0.06451
 C1442 C 0.58022 0.56386 0.07571
 C1443 C 0.59637 0.57893 0.08872
 C1444 C 0.59468 0.60220 0.08319
 C1445 C 0.61004 0.61708 0.09612
 C1446 C 0.62730 0.60883 0.11479
 C1447 C 0.62902 0.58537 0.12001
 C1448 C 0.61360 0.57050 0.10705
 C1449 C 0.64318 0.62474 0.12910
 C1450 C 0.66645 0.61955 0.13115
 C1451 C 0.68133 0.63472 0.14461
 C1452 C 0.67310 0.65515 0.15617
 C1453 C 0.64999 0.66041 0.15431
 C1454 C 0.63511 0.64532 0.14087
 C1455 C 0.68817 0.67081 0.17014
 C1456 C 0.70023 0.68434 0.18214
 H1457 H 0.58144 0.60887 0.06894
 H1458 H 0.60851 0.63502 0.09137
 H1459 H 0.64198 0.57858 0.13456
 H1460 H 0.61499 0.55249 0.11148
 H1461 H 0.67315 0.60394 0.12199
 H1462 H 0.69921 0.63053 0.14594
 H1463 H 0.64346 0.67616 0.16333
 H1464 H 0.61725 0.64961 0.14001
 C1465 C 0.07128 0.95462 0.93432
 C1466 C 0.08610 0.94387 0.92243
 C1467 C 0.10345 0.93049 0.90839
 C1468 C 0.10136 0.92466 0.87855
 C1469 C 0.11748 0.91053 0.86528
 C1470 C 0.13591 0.90199 0.88175
 C1471 C 0.13809 0.90829 0.91160
 C1472 C 0.12194 0.92245 0.92482
 C1473 C 0.15219 0.88581 0.86815
 C1474 C 0.15982 0.86671 0.88407
 C1475 C 0.17407 0.85072 0.87074
 C1476 C 0.18093 0.85362 0.84139
 C1477 C 0.17380 0.87277 0.82552
 C1478 C 0.15952 0.88878 0.83881
 C1479 C 0.19438 0.83640 0.82720
 C1480 C 0.20515 0.82163 0.81523
 H1481 H 0.08703 0.93070 0.86569
 H1482 H 0.11516 0.90573 0.84239
 H1483 H 0.15224 0.90221 0.92474
 H1484 H 0.12371 0.92686 0.94795
 H1485 H 0.15421 0.86377 0.90653
 H1486 H 0.17939 0.83588 0.88314
 H1487 H 0.17901 0.87515 0.80277
 H1488 H 0.15415 0.90344 0.82612
 C1489 C 0.42838 0.04387 0.43425
 C1490 C 0.41365 0.05460 0.42205
 C1491 C 0.39643 0.06804 0.40770
 C1492 C 0.37729 0.07520 0.42348
 C1493 C 0.36131 0.08951 0.41012
 C1494 C 0.36430 0.09687 0.38078
 C1495 C 0.38339 0.08921 0.36494
 C1496 C 0.39935 0.07491 0.37835
 C1497 C 0.34813 0.11319 0.36711
 C1498 C 0.34182 0.11107 0.33723
 C1499 C 0.32760 0.12719 0.32400
 C1500 C 0.31947 0.14560 0.34044
 C1501 C 0.32532 0.14766 0.37028
 C1502 C 0.33954 0.13156 0.38356
 C1503 C 0.30599 0.16293 0.32640
 C1504 C 0.29517 0.17777 0.31454
 H1505 H 0.37489 0.06998 0.44624
 H1506 H 0.34665 0.09489 0.42276
 H1507 H 0.38635 0.09482 0.34248
 H1508 H 0.41419 0.06958 0.36600
 H1509 H 0.34795 0.09698 0.32409
 H1510 H 0.32318 0.12546 0.30086
 H1511 H 0.31924 0.16193 0.38315
 H1512 H 0.34433 0.13385 0.40647
 C1513 C 0.93349 0.45080 0.56826
 C1514 C 0.91976 0.43928 0.58081
 C1515 C 0.90380 0.42497 0.59567
 C1516 C 0.91147 0.40544 0.61022
 C1517 C 0.89605 0.39108 0.62406
 C1518 C 0.87271 0.39608 0.62351
 C1519 C 0.86514 0.41584 0.60897
 C1520 C 0.88063 0.43020 0.59513
 C1521 C 0.85637 0.38051 0.63769
 C1522 C 0.83584 0.37512 0.62359
 C1523 C 0.82093 0.35966 0.63644
 C1524 C 0.82635 0.34948 0.66352
 C1525 C 0.84656 0.35498 0.67790
 C1526 C 0.86148 0.37040 0.66511
 C1527 C 0.81155 0.33292 0.67629
 C1528 C 0.79964 0.31876 0.68734
 H1529 H 0.92937 0.40119 0.61063
 H1530 H 0.90235 0.37583 0.63470
 H1531 H 0.84730 0.42024 0.60848
 H1532 H 0.87454 0.44531 0.58395
 H1533 H 0.83158 0.38244 0.60232
 H1534 H 0.80535 0.35544 0.62510
 H1535 H 0.85088 0.34721 0.69891
 H1536 H 0.87701 0.37445 0.67666
 C1537 C 0.92988 0.54895 0.05147
 C1538 C 0.91572 0.56030 0.06389
 C1539 C 0.89940 0.57421 0.07928
 C1540 C 0.90091 0.57667 0.10998
 C1541 C 0.88583 0.59100 0.12494
 C1542 C 0.86901 0.60313 0.10935
 C1543 C 0.86744 0.60031 0.07851
 C1544 C 0.88255 0.58595 0.06359
 C1545 C 0.85370 0.61919 0.12511
 C1546 C 0.84813 0.64032 0.11247
 C1547 C 0.83449 0.65583 0.12776
 C1548 C 0.82617 0.65046 0.15587
 C1549 C 0.83138 0.62939 0.16852
 C1550 C 0.84504 0.61385 0.15326
 C1551 C 0.81278 0.66685 0.17187
 C1552 C 0.80186 0.68100 0.18493
 H1553 H 0.91397 0.56778 0.12233
 H1554 H 0.88772 0.59303 0.14859
 H1555 H 0.85452 0.60919 0.06592
 H1556 H 0.88123 0.58419 0.03982
 H1557 H 0.85477 0.64511 0.09106
 H1558 H 0.83066 0.67212 0.11780
 H1559 H 0.82502 0.62504 0.19025
 H1560 H 0.84877 0.59762 0.16344
 C1561 C 0.57011 0.45297 0.55509
 C1562 C 0.58435 0.44211 0.56813
 C1563 C 0.60074 0.42872 0.58422
 C1564 C 0.62030 0.42061 0.57017
 C1565 C 0.63558 0.40665 0.58551
 C1566 C 0.63145 0.40059 0.61514
 C1567 C 0.61191 0.40915 0.62918
 C1568 C 0.59668 0.42308 0.61380
 C1569 C 0.64695 0.38475 0.63103
 C1570 C 0.65215 0.38808 0.66110
 C1571 C 0.66583 0.37249 0.67634
 C1572 C 0.67450 0.35341 0.66174
 C1573 C 0.66968 0.35013 0.63176
 C1574 C 0.65603 0.36568 0.61649
 C1575 C 0.68767 0.33671 0.67759
 C1576 C 0.69841 0.32218 0.69028
 H1577 H 0.62363 0.42487 0.54728
 H1578 H 0.65060 0.40057 0.57420
 H1579 H 0.60807 0.40456 0.65180
 H1580 H 0.58153 0.42916 0.62485
 H1581 H 0.64565 0.40272 0.67282
 H1582 H 0.66946 0.37520 0.69954
 H1583 H 0.67619 0.33536 0.62028
 H1584 H 0.65209 0.36244 0.59351
 C1585 C 0.06527 0.05152 0.44348
 C1586 C 0.07881 0.06305 0.43045
 C1587 C 0.09453 0.07708 0.41454
 C1588 C 0.11608 0.08136 0.42614
 C1589 C 0.13107 0.09547 0.41092
 C1590 C 0.12468 0.10548 0.38386
 C1591 C 0.10305 0.10090 0.37230
 C1592 C 0.08810 0.08682 0.38755
 C1593 C 0.14029 0.12101 0.36804
 C1594 C 0.14200 0.12048 0.33700
 C1595 C 0.15612 0.13564 0.32210
 C1596 C 0.16872 0.15151 0.33801
 C1597 C 0.16731 0.15202 0.36888
 C1598 C 0.15322 0.13688 0.38382
 C1599 C 0.18265 0.16769 0.32273
 C1600 C 0.19416 0.18161 0.31039
 H1601 H 0.12125 0.07388 0.44699
 H1602 H 0.14769 0.09844 0.42023
 H1603 H 0.09749 0.10860 0.35177
 H1604 H 0.07143 0.08369 0.37841
 H1605 H 0.13249 0.10828 0.32424
 H1606 H 0.15709 0.13508 0.29820
 H1607 H 0.17691 0.16431 0.38141
 H1608 H 0.15206 0.13795 0.40766
 C1609 C 0.43435 0.94607 0.94780
 C1610 C 0.42084 0.93406 0.93552
 C1611 C 0.40523 0.91941 0.92042
 C1612 C 0.40774 0.89588 0.92271
 C1613 C 0.39324 0.88155 0.90713
 C1614 C 0.37601 0.89058 0.88897
 C1615 C 0.37343 0.91428 0.88710
 C1616 C 0.38799 0.92859 0.90269
 C1617 C 0.36102 0.87531 0.87182
 C1618 C 0.33766 0.87992 0.86921
 C1619 C 0.32359 0.86526 0.85341
 C1620 C 0.33268 0.84589 0.83994
 C1621 C 0.35591 0.84128 0.84218
 C1622 C 0.37000 0.85587 0.85798
 C1623 C 0.31819 0.83033 0.82451
 C1624 C 0.30635 0.81682 0.81195
 H1625 H 0.42101 0.88858 0.93637
 H1626 H 0.39544 0.86340 0.90940
 H1627 H 0.36049 0.92175 0.87310
 H1628 H 0.38596 0.94679 0.90064
 H1629 H 0.33020 0.89460 0.87985
 H1630 H 0.30560 0.86894 0.85193
 H1631 H 0.36314 0.82634 0.83183
 H1632 H 0.38795 0.85203 0.85918
 C1633 C 0.07045 0.94954 0.56297
 C1634 C 0.08491 0.93877 0.57571
 C1635 C 0.10159 0.92552 0.59146
 C1636 C 0.12156 0.91848 0.57741
 C1637 C 0.13723 0.90480 0.59249
 C1638 C 0.13310 0.89796 0.62182
 C1639 C 0.11311 0.90540 0.63584
 C1640 C 0.09748 0.91906 0.62074
 C1641 C 0.14910 0.88246 0.63741
 C1642 C 0.15389 0.88539 0.66767
 C1643 C 0.16803 0.87005 0.68261
 C1644 C 0.17759 0.85163 0.66751
 C1645 C 0.17321 0.84878 0.63734
 C1646 C 0.15909 0.86408 0.62237
 C1647 C 0.19118 0.83511 0.68304
 C1648 C 0.20222 0.82077 0.69560
 H1649 H 0.12491 0.92338 0.55475
 H1650 H 0.15258 0.89957 0.58120
 H1651 H 0.10926 0.90017 0.65822
 H1652 H 0.08202 0.92431 0.63177
 H1653 H 0.14668 0.89951 0.67978
 H1654 H 0.17130 0.87241 0.70597
 H1655 H 0.18041 0.83451 0.62548
 H1656 H 0.15550 0.86116 0.59922
 C1657 C 0.56680 0.55533 0.43580
 C1658 C 0.58048 0.56673 0.42283
 C1659 C 0.59637 0.58055 0.40681
 C1660 C 0.61875 0.58264 0.41670
 C1661 C 0.63400 0.59630 0.40123
 C1662 C 0.62708 0.60805 0.37561
 C1663 C 0.60458 0.60571 0.36579
 C1664 C 0.58936 0.59208 0.38130
 C1665 C 0.64305 0.62307 0.35954
 C1666 C 0.64312 0.62390 0.32842
 C1667 C 0.65756 0.63869 0.31339
 C1668 C 0.67213 0.65283 0.32923
 C1669 C 0.67237 0.65193 0.36015
 C1670 C 0.65797 0.63715 0.37522
 C1671 C 0.68629 0.66882 0.31393
 C1672 C 0.69796 0.68264 0.30162
 H1673 H 0.62439 0.57376 0.43639
 H1674 H 0.65127 0.59754 0.40918
 H1675 H 0.59861 0.61479 0.34644
 H1676 H 0.57206 0.59065 0.37349
 H1677 H 0.63205 0.61307 0.31570
 H1678 H 0.65723 0.63922 0.28945
 H1679 H 0.68349 0.66288 0.37266
 H1680 H 0.65813 0.63716 0.39915
 C1681 C 0.42971 0.05158 0.06154
 C1682 C 0.41523 0.06248 0.07399
 C1683 C 0.39849 0.07583 0.08940
 C1684 C 0.40003 0.07844 0.12008
 C1685 C 0.38452 0.09228 0.13504
 C1686 C 0.36724 0.10376 0.11948
 C1687 C 0.36563 0.10074 0.08868
 C1688 C 0.38117 0.08687 0.07375
 C1689 C 0.35154 0.11944 0.13517
 C1690 C 0.34542 0.14036 0.12238
 C1691 C 0.33142 0.15557 0.13758
 C1692 C 0.32329 0.15011 0.16574
 C1693 C 0.32903 0.12923 0.17855
 C1694 C 0.34306 0.11398 0.16337
 C1695 C 0.30961 0.16629 0.18164
 C1696 C 0.29847 0.18035 0.19452
 H1697 H 0.41345 0.07006 0.13238
 H1698 H 0.38643 0.09449 0.15867
 H1699 H 0.35235 0.10911 0.07613
 H1700 H 0.37981 0.08497 0.05000
 H1701 H 0.35193 0.14523 0.10093
 H1702 H 0.32716 0.17173 0.12752
 H1703 H 0.32281 0.12482 0.20033
 H1704 H 0.34725 0.09790 0.17365
 C1705 C 0.93370 0.44402 0.93953
 C1706 C 0.91993 0.43211 0.92750
 C1707 C 0.90406 0.41752 0.91267
 C1708 C 0.90671 0.39397 0.91448
 C1709 C 0.89196 0.37971 0.89920
 C1710 C 0.87430 0.38879 0.88180
 C1711 C 0.87161 0.41250 0.88038
 C1712 C 0.88642 0.42675 0.89567
 C1713 C 0.85895 0.37357 0.86502
 C1714 C 0.83554 0.37818 0.86323
 C1715 C 0.82114 0.36361 0.84778
 C1716 C 0.82992 0.34429 0.83384
 C1717 C 0.85320 0.33967 0.83528
 C1718 C 0.86761 0.35418 0.85073
 C1719 C 0.81510 0.32888 0.81858
 C1720 C 0.80297 0.31558 0.80605
 H1721 H 0.92029 0.38661 0.92758
 H1722 H 0.89429 0.36155 0.90114
 H1723 H 0.85835 0.42005 0.86694
 H1724 H 0.88427 0.44496 0.89396
 H1725 H 0.82830 0.39282 0.87423
 H1726 H 0.80314 0.36732 0.84693
 H1727 H 0.86022 0.32479 0.82455
 H1728 H 0.88558 0.35033 0.85127
 C1729 C 0.56871 0.04974 0.93738
 C1730 C 0.58288 0.06045 0.92441
 C1731 C 0.59961 0.07382 0.90945
 C1732 C 0.61866 0.08143 0.92484
 C1733 C 0.63426 0.09557 0.91089
 C1734 C 0.63096 0.10230 0.88134
 C1735 C 0.61195 0.09422 0.86590
 C1736 C 0.59636 0.08009 0.87991
 C1737 C 0.64679 0.11831 0.86697
 C1738 C 0.65314 0.11540 0.83723
 C1739 C 0.66716 0.13115 0.82334
 C1740 C 0.67502 0.14996 0.83899
 C1741 C 0.66910 0.15283 0.86869
 C1742 C 0.65509 0.13710 0.88263
 C1743 C 0.68835 0.16681 0.82421
 C1744 C 0.69906 0.18114 0.81153
 H1745 H 0.62131 0.07667 0.94774
 H1746 H 0.64888 0.10129 0.92321
 H1747 H 0.60878 0.09934 0.84327
 H1748 H 0.58158 0.07439 0.86787
 H1749 H 0.64723 0.10096 0.82472
 H1750 H 0.67165 0.12880 0.80032
 H1751 H 0.67499 0.16742 0.88093
 H1752 H 0.65025 0.13997 0.90541
 C1753 C 0.42790 0.54759 0.56016
 C1754 C 0.41307 0.55771 0.57297
 C1755 C 0.39571 0.57049 0.58794
 C1756 C 0.39786 0.57525 0.61809
 C1757 C 0.38188 0.58910 0.63217
 C1758 C 0.36355 0.59841 0.61622
 C1759 C 0.36127 0.59309 0.58605
 C1760 C 0.37728 0.57925 0.57202
 C1761 C 0.34755 0.61446 0.63068
 C1762 C 0.34008 0.63406 0.61568
 C1763 C 0.32627 0.64997 0.62992
 C1764 C 0.31970 0.64651 0.65928
 C1765 C 0.32662 0.62685 0.67420
 C1766 C 0.34043 0.61090 0.66000
 C1767 C 0.30697 0.66372 0.67458
 C1768 C 0.29692 0.67846 0.68764
 H1769 H 0.41214 0.56867 0.63058
 H1770 H 0.38430 0.59312 0.65530
 H1771 H 0.34720 0.59977 0.57326
 H1772 H 0.37548 0.57568 0.54864
 H1773 H 0.34552 0.63746 0.59326
 H1774 H 0.32112 0.66521 0.61823
 H1775 H 0.32165 0.62403 0.69696
 H1776 H 0.34566 0.59585 0.67201
 C1777 C 0.07140 0.45306 0.06123
 C1778 C 0.08612 0.44299 0.07437
 C1779 C 0.10332 0.43019 0.08972
 C1780 C 0.12301 0.42335 0.07488
 C1781 C 0.13895 0.40947 0.08910
 C1782 C 0.13535 0.40222 0.11837
 C1783 C 0.11572 0.40960 0.13329
 C1784 C 0.09981 0.42347 0.11903
 C1785 C 0.15142 0.38621 0.13287
 C1786 C 0.15678 0.38846 0.16304
 C1787 C 0.17072 0.37248 0.17708
 C1788 C 0.17951 0.35410 0.16117
 C1789 C 0.17469 0.35198 0.13102
 C1790 C 0.16076 0.36793 0.11693
 C1791 C 0.19241 0.33677 0.17613
 C1792 C 0.20261 0.32193 0.18889
 H1793 H 0.12586 0.42842 0.05216
 H1794 H 0.15401 0.40430 0.07715
 H1795 H 0.11229 0.40406 0.15567
 H1796 H 0.08454 0.42854 0.13065
 H1797 H 0.15008 0.40249 0.17582
 H1798 H 0.17432 0.37426 0.20045
 H1799 H 0.18128 0.33772 0.11855
 H1800 H 0.15670 0.36553 0.09380
 C1801 C 0.93017 0.94840 0.44159
 C1802 C 0.91585 0.93721 0.42969
 C1803 C 0.89905 0.92318 0.41606
 C1804 C 0.88958 0.90531 0.43208
 C1805 C 0.87414 0.89081 0.41856
 C1806 C 0.86800 0.89401 0.38879
 C1807 C 0.87728 0.91230 0.37301
 C1808 C 0.89276 0.92678 0.38659
 C1809 C 0.85267 0.87781 0.37396
 C1810 C 0.83592 0.88550 0.35412
 C1811 C 0.82208 0.87004 0.33941
 C1812 C 0.82484 0.84677 0.34438
 C1813 C 0.84128 0.83898 0.36430
 C1814 C 0.85511 0.85438 0.37902
 C1815 C 0.81145 0.83075 0.32829
 C1816 C 0.80075 0.81703 0.31457
 H1817 H 0.89434 0.90242 0.45493
 H1818 H 0.86704 0.87706 0.43136
 H1819 H 0.87307 0.91501 0.34996
 H1820 H 0.90009 0.94054 0.37399
 H1821 H 0.83351 0.90344 0.35004
 H1822 H 0.80940 0.87621 0.32399
 H1823 H 0.84363 0.82098 0.36813
 H1824 H 0.86808 0.84794 0.39383
 C1825 C 0.92992 0.55171 0.56180
 C1826 C 0.91550 0.56264 0.57431
 C1827 C 0.89883 0.57601 0.58981
 C1828 C 0.90034 0.57844 0.62052
 C1829 C 0.88490 0.59230 0.63558
 C1830 C 0.86773 0.60399 0.62008
 C1831 C 0.86614 0.60115 0.58925
 C1832 C 0.88160 0.58727 0.57423
 C1833 C 0.85211 0.61969 0.63588
 C1834 C 0.84615 0.64072 0.62328
 C1835 C 0.83221 0.65592 0.63858
 C1836 C 0.82400 0.65036 0.66666
 C1837 C 0.82960 0.62939 0.67930
 C1838 C 0.84357 0.61413 0.66402
 C1839 C 0.81038 0.66653 0.68267
 C1840 C 0.79928 0.68057 0.69565
 H1841 H 0.91368 0.56989 0.63278
 H1842 H 0.88680 0.59436 0.65923
 H1843 H 0.85295 0.60969 0.57675
 H1844 H 0.88027 0.58551 0.55045
 H1845 H 0.85271 0.64566 0.60188
 H1846 H 0.82806 0.67216 0.62865
 H1847 H 0.82333 0.62489 0.70102
 H1848 H 0.84764 0.59797 0.67417
 C1849 C 0.57032 0.45010 0.06409
 C1850 C 0.58478 0.43933 0.07684
 C1851 C 0.60147 0.42607 0.09253
 C1852 C 0.62158 0.41934 0.07856
 C1853 C 0.63727 0.40561 0.09353
 C1854 C 0.63301 0.39840 0.12268
 C1855 C 0.61289 0.40553 0.13664
 C1856 C 0.59724 0.41925 0.12164
 C1857 C 0.64903 0.38284 0.13813
 C1858 C 0.65362 0.38544 0.16848
 C1859 C 0.66778 0.37003 0.18326
 C1860 C 0.67756 0.35186 0.16790
 C1861 C 0.67337 0.34932 0.13764
 C1862 C 0.65924 0.36470 0.12283
 C1863 C 0.69118 0.33526 0.18326
 C1864 C 0.70224 0.32087 0.19570
 H1865 H 0.62503 0.42452 0.05603
 H1866 H 0.65272 0.40062 0.08230
 H1867 H 0.60894 0.40001 0.15887
 H1868 H 0.58167 0.42425 0.13261
 H1869 H 0.64624 0.39938 0.18079
 H1870 H 0.67090 0.37215 0.20670
 H1871 H 0.68074 0.33524 0.12557
 H1872 H 0.65579 0.36202 0.09959
 C1873 C 0.43235 0.94269 0.44097
 C1874 C 0.41871 0.93077 0.42873
 C1875 C 0.40298 0.91621 0.41363
 C1876 C 0.40599 0.89267 0.41471
 C1877 C 0.39136 0.87846 0.39914
 C1878 C 0.37346 0.88758 0.38219
 C1879 C 0.37041 0.91127 0.38150
 C1880 C 0.38510 0.92547 0.39707
 C1881 C 0.35825 0.87243 0.36510
 C1882 C 0.33476 0.87672 0.36369
 C1883 C 0.32048 0.86220 0.34796
 C1884 C 0.32947 0.84325 0.33336
 C1885 C 0.35282 0.83897 0.33442
 C1886 C 0.36711 0.85343 0.35015
 C1887 C 0.31478 0.82787 0.31785
 C1888 C 0.30274 0.81458 0.30514
 H1889 H 0.41976 0.88529 0.42744
 H1890 H 0.39398 0.86030 0.40051
 H1891 H 0.35697 0.91885 0.36843
 H1892 H 0.38267 0.94367 0.39593
 H1893 H 0.32737 0.89105 0.37520
 H1894 H 0.30243 0.86564 0.34741
 H1895 H 0.36000 0.82439 0.32319
 H1896 H 0.38513 0.84984 0.35040
 C1897 C 0.06669 0.05559 0.93595
 C1898 C 0.08033 0.06708 0.92302
 C1899 C 0.09615 0.08100 0.90705
 C1900 C 0.11829 0.08380 0.91750
 C1901 C 0.13346 0.09760 0.90209
 C1902 C 0.12667 0.10878 0.87598
 C1903 C 0.10441 0.10574 0.86561
 C1904 C 0.08928 0.09196 0.88105
 C1905 C 0.14253 0.12395 0.85996
 C1906 C 0.14310 0.12431 0.82883
 C1907 C 0.15743 0.13921 0.81382
 C1908 C 0.17140 0.15393 0.82968
 C1909 C 0.17115 0.15351 0.86061
 C1910 C 0.15685 0.13863 0.87567
 C1911 C 0.18548 0.16996 0.81434
 C1912 C 0.19709 0.18379 0.80194
 H1913 H 0.12381 0.07537 0.93757
 H1914 H 0.15055 0.09939 0.91047
 H1915 H 0.09854 0.11437 0.84586
 H1916 H 0.07216 0.09000 0.87282
 H1917 H 0.13251 0.11303 0.81610
 H1918 H 0.15749 0.13936 0.78987
 H1919 H 0.18179 0.16491 0.87312
 H1920 H 0.15660 0.13900 0.89959
 C1921 C 0.07034 0.95280 0.05457
 C1922 C 0.08461 0.94189 0.06749
 C1923 C 0.10103 0.92843 0.08343
 C1924 C 0.12024 0.91985 0.06905
 C1925 C 0.13550 0.90580 0.08427
 C1926 C 0.13171 0.90013 0.11410
 C1927 C 0.11253 0.90917 0.12847
 C1928 C 0.09731 0.92319 0.11321
 C1929 C 0.14717 0.88419 0.12990
 C1930 C 0.15285 0.88771 0.15977
 C1931 C 0.16648 0.87205 0.17494
 C1932 C 0.17463 0.85269 0.16047
 C1933 C 0.16934 0.84921 0.13066
 C1934 C 0.15573 0.86484 0.11546
 C1935 C 0.18779 0.83595 0.17626
 C1936 C 0.19850 0.82140 0.18891
 H1937 H 0.12330 0.92379 0.04600
 H1938 H 0.15025 0.89934 0.07270
 H1939 H 0.10894 0.90489 0.15127
 H1940 H 0.08243 0.92965 0.12453
 H1941 H 0.14675 0.90257 0.17140
 H1942 H 0.17048 0.87492 0.19801
 H1943 H 0.17546 0.83423 0.11928
 H1944 H 0.15142 0.86144 0.09263
 C1945 C 0.93414 0.44608 0.44821
 C1946 C 0.92059 0.43408 0.43597
 C1947 C 0.90495 0.41945 0.42090
 C1948 C 0.90702 0.39592 0.42390
 C1949 C 0.89255 0.38158 0.40830
 C1950 C 0.87577 0.39060 0.38943
 C1951 C 0.87361 0.41429 0.38686
 C1952 C 0.88815 0.42861 0.40246
 C1953 C 0.86084 0.37530 0.37222
 C1954 C 0.83760 0.38023 0.36879
 C1955 C 0.82358 0.36558 0.35292
 C1956 C 0.83260 0.34587 0.34020
 C1957 C 0.85571 0.34094 0.34327
 C1958 C 0.86974 0.35552 0.35914
 C1959 C 0.81815 0.33033 0.32469
 C1960 C 0.80633 0.31683 0.31207
 H1961 H 0.91996 0.38863 0.43811
 H1962 H 0.89441 0.36344 0.41112
 H1963 H 0.86103 0.42175 0.37230
 H1964 H 0.88646 0.44680 0.39986
 H1965 H 0.83019 0.39519 0.37885
 H1966 H 0.80568 0.36951 0.35081
 H1967 H 0.86289 0.32574 0.33349
 H1968 H 0.88761 0.35142 0.36097
 C1969 C 0.42976 0.04908 0.55389
 C1970 C 0.41555 0.06047 0.56614
 C1971 C 0.39916 0.07445 0.58129
 C1972 C 0.40057 0.07713 0.61198
 C1973 C 0.38540 0.09151 0.62669
 C1974 C 0.36860 0.10350 0.61089
 C1975 C 0.36713 0.10046 0.58008
 C1976 C 0.38232 0.08604 0.56540
 C1977 C 0.35319 0.11961 0.62639
 C1978 C 0.34759 0.14064 0.61348
 C1979 C 0.33384 0.15620 0.62851
 C1980 C 0.32544 0.15099 0.65663
 C1981 C 0.33068 0.13002 0.66955
 C1982 C 0.34445 0.11443 0.65455
 C1983 C 0.31194 0.16744 0.67237
 C1984 C 0.30093 0.18165 0.68519
 H1985 H 0.41362 0.06835 0.62449
 H1986 H 0.38722 0.09371 0.65033
 H1987 H 0.35422 0.10921 0.56733
 H1988 H 0.38106 0.08412 0.54164
 H1989 H 0.35429 0.14530 0.59206
 H1990 H 0.32999 0.17242 0.61835
 H1991 H 0.32426 0.12579 0.69129
 H1992 H 0.34821 0.09828 0.66494
 C1993 C 0.56551 0.55237 0.94503
 C1994 C 0.57911 0.56391 0.93215
 C1995 C 0.59493 0.57790 0.91633
 C1996 C 0.61639 0.58223 0.92814
 C1997 C 0.63152 0.59620 0.91294
 C1998 C 0.62535 0.60601 0.88567
 C1999 C 0.60379 0.60140 0.87391
 C2000 C 0.58870 0.58746 0.88915
 C2001 C 0.64111 0.62138 0.86982
 C2002 C 0.64303 0.62059 0.83882
 C2003 C 0.65726 0.63562 0.82388
 C2004 C 0.66975 0.65162 0.83971
 C2005 C 0.66814 0.65237 0.87056
 C2006 C 0.65395 0.63736 0.88554
 C2007 C 0.68373 0.66772 0.82437
 C2008 C 0.69525 0.68161 0.81199
 H2009 H 0.62141 0.57488 0.94914
 H2010 H 0.64809 0.59920 0.92240
 H2011 H 0.59840 0.60895 0.85321
 H2012 H 0.57210 0.58428 0.87984
 H2013 H 0.63360 0.60830 0.82612
 H2014 H 0.65838 0.63488 0.79999
 H2015 H 0.67765 0.66477 0.88303
 H2016 H 0.65262 0.63862 0.90935
 C2017 C 0.43172 0.44810 0.93964
 C2018 C 0.41805 0.43673 0.92679
 C2019 C 0.40232 0.42236 0.91165
 C2020 C 0.40865 0.40007 0.90501
 C2021 C 0.39356 0.38585 0.89040
 C2022 C 0.37191 0.39376 0.88223
 C2023 C 0.36562 0.41619 0.88911
 C2024 C 0.38079 0.43043 0.90373
 C2025 C 0.35605 0.37857 0.86656
 C2026 C 0.33296 0.37798 0.87427
 C2027 C 0.31830 0.36296 0.86011
 C2028 C 0.32656 0.34848 0.83808
 C2029 C 0.34942 0.34920 0.83001
 C2030 C 0.36408 0.36414 0.84412
 C2031 C 0.31189 0.33254 0.82390
 C2032 C 0.30037 0.31877 0.81146
 H2033 H 0.42525 0.39365 0.91120
 H2034 H 0.39874 0.36856 0.88580
 H2035 H 0.34913 0.42278 0.88282
 H2036 H 0.37576 0.44769 0.90879
 H2037 H 0.32638 0.38875 0.89168
 H2038 H 0.30062 0.36248 0.86653
 H2039 H 0.35595 0.33810 0.81290
 H2040 H 0.38169 0.36446 0.83741
 C2041 C 0.92815 0.04750 0.06076
 C2042 C 0.91334 0.05761 0.07360
 C2043 C 0.89598 0.07041 0.08855
 C2044 C 0.89819 0.07531 0.11866
 C2045 C 0.88221 0.08918 0.13269
 C2046 C 0.86382 0.09838 0.11674
 C2047 C 0.86148 0.09292 0.08662
 C2048 C 0.87749 0.07904 0.07263
 C2049 C 0.84781 0.11444 0.13114
 C2050 C 0.84025 0.13396 0.11602
 C2051 C 0.82639 0.14988 0.13018
 C2052 C 0.81987 0.14651 0.15958
 C2053 C 0.82688 0.12694 0.17462
 C2054 C 0.84074 0.11098 0.16050
 C2055 C 0.80709 0.16374 0.17479
 C2056 C 0.79700 0.17848 0.18778
 H2057 H 0.91252 0.06881 0.13113
 H2058 H 0.88467 0.09331 0.15578
 H2059 H 0.84737 0.09950 0.07384
 H2060 H 0.87565 0.07537 0.04930
 H2061 H 0.84565 0.13729 0.09357
 H2062 H 0.82118 0.16505 0.11840
 H2063 H 0.82195 0.12419 0.19741
 H2064 H 0.84604 0.09600 0.17260
 C2065 C 0.57135 0.95317 0.56439
 C2066 C 0.58608 0.94309 0.57751
 C2067 C 0.60332 0.93030 0.59279
 C2068 C 0.62316 0.92383 0.57801
 C2069 C 0.63917 0.90997 0.59212
 C2070 C 0.63549 0.90235 0.62121
 C2071 C 0.61569 0.90934 0.63607
 C2072 C 0.59972 0.92320 0.62192
 C2073 C 0.65167 0.88637 0.63557
 C2074 C 0.65684 0.88836 0.66583
 C2075 C 0.67090 0.87240 0.67971
 C2076 C 0.68001 0.85431 0.66355
 C2077 C 0.67538 0.85245 0.63332
 C2078 C 0.66132 0.86838 0.61939
 C2079 C 0.69304 0.83697 0.67832
 C2080 C 0.70332 0.82212 0.69095
 H2081 H 0.62609 0.92920 0.55543
 H2082 H 0.65436 0.90510 0.58022
 H2083 H 0.61220 0.90351 0.65830
 H2084 H 0.58434 0.92798 0.63349
 H2085 H 0.64989 0.90216 0.67880
 H2086 H 0.67435 0.87397 0.70315
 H2087 H 0.68222 0.83842 0.62064
 H2088 H 0.65743 0.86619 0.59618
 C2089 C 0.06855 0.54954 0.43684
 C2090 C 0.08270 0.56015 0.42370
 C2091 C 0.09940 0.57339 0.40850
 C2092 C 0.11884 0.58051 0.42347
 C2093 C 0.13445 0.59452 0.40931
 C2094 C 0.13078 0.60160 0.37998
 C2095 C 0.11138 0.59401 0.36495
 C2096 C 0.09578 0.58001 0.37916
 C2097 C 0.14664 0.61750 0.36544
 C2098 C 0.15248 0.61477 0.33550
 C2099 C 0.16652 0.63044 0.32149
 C2100 C 0.17490 0.64899 0.33722
 C2101 C 0.16947 0.65167 0.36711
 C2102 C 0.15545 0.63601 0.38117
 C2103 C 0.18824 0.66579 0.32236
 C2104 C 0.19895 0.68012 0.30968
 H2105 H 0.12179 0.57547 0.44621
 H2106 H 0.14937 0.59987 0.42132
 H2107 H 0.10793 0.59941 0.34249
 H2108 H 0.08071 0.57469 0.36744
 H2109 H 0.14616 0.60055 0.32293
 H2110 H 0.17062 0.62824 0.29832
 H2111 H 0.17577 0.66605 0.37942
 H2112 H 0.15101 0.63874 0.40412
   
