data_POSCAR
  _audit_creation_date              2014-09-24
  _audit_creation_method            'ToBaCCo'
  _symmetry_space_group_name_H-M    'P1'
  _symmetry_Int_Tables_number       1
  _symmetry_cell_setting            triclinic
  loop_
  _symmetry_equiv_pos_as_xyz
 x,y,z
_cell_length_a 32.2600
_cell_length_b 32.5711
_cell_length_c 31.1816
_cell_angle_alpha 88.883700
_cell_angle_beta 90.933800
_cell_angle_gamma 91.328100
loop_
  _atom_site_label
  _atom_site_type_symbol
  _atom_site_fract_x
  _atom_site_fract_y
  _atom_site_fract_z
C1 C 0.40184 0.01911 0.28450
 C2 C 0.37653 0.05825 0.28333
 C3 C 0.34394 0.05727 0.25542
 C4 C 0.33939 0.01709 0.23052
 C5 C 0.37037 -0.01577 0.29340
 C6 C 0.33809 -0.01750 0.26461
 C7 C 0.41439 0.01323 0.23769
 C8 C 0.38151 0.01221 0.20949
 H9 H 0.38489 0.08542 0.30131
 H10 H 0.31271 0.01589 0.20758
 H11 H 0.37503 -0.03854 0.31867
 H12 H 0.44633 0.01193 0.22775
 C13 C 0.10529 -0.00037 0.78288
 C14 C 0.12770 -0.04130 0.78387
 C15 C 0.15723 -0.04408 0.75384
 C16 C 0.16267 -0.00497 0.72573
 C17 C 0.14035 0.03190 0.78793
 C18 C 0.17038 0.03009 0.75746
 C19 C 0.09018 0.00544 0.73909
 C20 C 0.12186 0.00335 0.70759
 H21 H 0.12222 -0.06593 0.80691
 H22 H 0.18753 -0.00682 0.70163
 H23 H 0.13798 0.05673 0.81018
 H24 H 0.05786 0.01058 0.73132
 C25 C 0.60010 0.50272 0.27025
 C26 C 0.61472 0.46051 0.25746
 C27 C 0.64680 0.46175 0.23006
 C28 C 0.66091 0.50544 0.21655
 C29 C 0.63887 0.52587 0.28678
 C30 C 0.67062 0.52794 0.25847
 C31 C 0.58923 0.52423 0.22736
 C32 C 0.62117 0.52543 0.19896
 H33 H 0.60041 0.43189 0.26858
 H34 H 0.68687 0.50639 0.19355
 H35 H 0.63840 0.54401 0.31548
 H36 H 0.55816 0.53385 0.21928
 C37 C 0.90487 0.51958 0.77888
 C38 C 0.88204 0.56000 0.77381
 C39 C 0.85026 0.55895 0.74487
 C40 C 0.84449 0.51726 0.72253
 C41 C 0.87108 0.48714 0.78901
 C42 C 0.83958 0.48526 0.75918
 C43 C 0.91869 0.50978 0.73372
 C44 C 0.88719 0.50793 0.70423
 H45 H 0.89026 0.58758 0.79107
 H46 H 0.81884 0.51621 0.69836
 H47 H 0.87400 0.46619 0.81613
 H48 H 0.95085 0.50531 0.72597
 C49 C 0.29247 0.41995 1.02221
 C50 C 0.28409 0.39015 1.05991
 C51 C 0.24903 0.36668 1.05475
 C52 C 0.22636 0.37411 1.01179
 C53 C 0.29377 0.39277 0.98295
 C54 C 0.25924 0.36882 0.97713
 C55 C 0.25249 0.44440 1.01673
 C56 C 0.21765 0.42050 1.01157
 H57 H 0.30240 0.38992 1.08935
 H58 H 0.19921 0.35321 1.00705
 H59 H 0.31981 0.39359 0.96154
 H60 H 0.25169 0.47751 1.01914
 C61 C 0.77809 0.07599 0.99211
 C62 C 0.76534 0.10730 0.95683
 C63 C 0.73571 0.13348 0.96940
 C64 C 0.72083 0.12517 1.01512
 C65 C 0.79032 0.10168 1.03113
 C66 C 0.76072 0.12778 1.04276
 C67 C 0.73996 0.05480 1.00376
 C68 C 0.70793 0.08186 1.01586
 H69 H 0.78001 0.11014 0.92589
 H70 H 0.69638 0.14637 1.02507
 H71 H 0.82035 0.10028 1.04716
 H72 H 0.73490 0.02239 0.99807
 C73 C 0.29886 0.58254 0.50273
 C74 C 0.29804 0.61106 0.46321
 C75 C 0.26379 0.63431 0.45961
 C76 C 0.23298 0.62700 0.49610
 C77 C 0.29272 0.61051 0.54079
 C78 C 0.25910 0.63469 0.53695
 C79 C 0.25842 0.55697 0.49996
 C80 C 0.22364 0.58031 0.49707
 H81 H 0.32414 0.61508 0.44195
 H82 H 0.20503 0.64625 0.49332
 H83 H 0.31289 0.60988 0.56885
 H84 H 0.25774 0.52375 0.50093
 C85 C 0.78872 0.91033 0.51036
 C86 C 0.77855 0.88664 0.55191
 C87 C 0.74518 0.86055 0.54853
 C88 C 0.72501 0.86058 0.50357
 C89 C 0.79369 0.87725 0.47692
 C90 C 0.76044 0.85127 0.47311
 C91 C 0.74842 0.93196 0.49781
 C92 C 0.71469 0.90606 0.49505
 H93 H 0.79574 0.89089 0.58171
 H94 H 0.69839 0.83897 0.49943
 H95 H 0.82079 0.87611 0.45706
 H96 H 0.74616 0.96507 0.49559
 C97 C -0.02564 0.28589 0.38636
 C98 C 0.01495 0.29344 0.36201
 C99 C 0.02531 0.26178 0.33654
 C100 C -0.00568 0.22493 0.33899
 C101 C -0.05624 0.27566 0.35315
 C102 C -0.04552 0.24188 0.32742
 C103 C -0.01893 0.24559 0.41211
 C104 C -0.00811 0.21370 0.38706
 H105 H 0.03343 0.32154 0.36431
 H106 H 0.00253 0.19844 0.31923
 H107 H -0.08627 0.28984 0.35059
 H108 H -0.02343 0.24260 0.44634
 C109 C 0.00753 0.77650 0.10575
 C110 C -0.02605 0.76753 0.13903
 C111 C -0.02448 0.72945 0.15766
 C112 C 0.01028 0.70327 0.14048
 C113 C 0.04827 0.76770 0.12960
 C114 C 0.04978 0.72944 0.14778
 C115 C 0.00199 0.74186 0.07320
 C116 C 0.00355 0.70347 0.09148
 H117 H -0.05009 0.78909 0.14570
 H118 H 0.01161 0.67206 0.15544
 H119 H 0.07426 0.78937 0.13050
 H120 H -0.00452 0.74713 0.03947
 C121 C 0.48820 0.28693 0.59340
 C122 C 0.45697 0.28067 0.62952
 C123 C 0.46834 0.25253 0.66014
 C124 C 0.51047 0.23300 0.65164
 C125 C 0.52894 0.29778 0.61647
 C126 C 0.54114 0.26989 0.64669
 C127 C 0.49411 0.24400 0.57563
 C128 C 0.50570 0.21547 0.60600
 H129 H 0.42698 0.29498 0.62906
 H130 H 0.51964 0.20989 0.67642
 H131 H 0.54708 0.32534 0.60888
 H132 H 0.48766 0.23703 0.54240
 C133 C 0.48856 0.80094 0.90439
 C134 C 0.52631 0.79699 0.87497
 C135 C 0.52584 0.76124 0.85257
 C136 C 0.48800 0.73316 0.86190
 C137 C 0.45119 0.79595 0.87398
 C138 C 0.45037 0.76048 0.85186
 C139 C 0.48827 0.76423 0.93155
 C140 C 0.48933 0.72689 0.90858
 H141 H 0.55220 0.81875 0.87457
 H142 H 0.48718 0.70489 0.84275
 H143 H 0.42746 0.81883 0.87017
 H144 H 0.49176 0.76519 0.96616
 C145 C -0.23619 0.67595 0.96557
 C146 C -0.20134 0.64637 0.97690
 C147 C -0.21194 0.61711 1.00681
 C148 C -0.25645 0.62032 1.02295
 C149 C -0.27313 0.64862 0.95227
 C150 C -0.28379 0.61927 0.98184
 C151 C -0.24853 0.69368 1.00839
 C152 C -0.25893 0.66492 1.03875
 H153 H -0.17050 0.64950 0.96381
 H154 H -0.26473 0.59625 1.04698
 H155 H -0.28992 0.65276 0.92215
 H156 H -0.24678 0.72625 1.01488
 C157 C -0.25150 0.31904 0.46478
 C158 C -0.28816 0.34311 0.48065
 C159 C -0.27845 0.36803 0.51415
 C160 C -0.23275 0.36543 0.52954
 C161 C -0.21789 0.35179 0.45479
 C162 C -0.20748 0.37584 0.48876
 C163 C -0.23612 0.29678 0.50209
 C164 C -0.22562 0.32177 0.53772
 H165 H -0.31895 0.34096 0.46635
 H166 H -0.22546 0.38597 0.55667
 H167 H -0.20137 0.35332 0.42480
 H168 H -0.23311 0.26366 0.50317
 C169 C 0.24967 -0.15889 -0.02408
 C170 C 0.20758 -0.14156 -0.01244
 C171 C 0.21049 -0.11033 0.01592
 C172 C 0.25505 -0.09940 0.03004
 C173 C 0.27533 -0.12168 -0.04029
 C174 C 0.27856 -0.09044 -0.01177
 C175 C 0.26912 -0.17044 0.01689
 C176 C 0.27196 -0.13752 0.04687
 H177 H 0.17818 -0.15380 -0.02436
 H178 H 0.25689 -0.07351 0.05280
 H179 H 0.29327 -0.12269 -0.06925
 H180 H 0.27792 -0.20159 0.02475
 C181 C 0.25374 1.16395 0.46827
 C182 C 0.29406 1.14049 0.47333
 C183 C 0.29189 1.10783 0.50125
 C184 C 0.24909 1.10151 0.52163
 C185 C 0.22097 1.13169 0.45586
 C186 C 0.21781 1.09921 0.48361
 C187 C 0.24294 1.17573 0.51414
 C188 C 0.24092 1.14305 0.54230
 H189 H 0.32198 1.14930 0.45634
 H190 H 0.24781 1.07517 0.54466
 H191 H 0.19982 1.13593 0.42883
 H192 H 0.24212 1.20731 0.52425
 C193 C 0.15343 0.54433 0.22996
 C194 C 0.12061 0.54190 0.19397
 C195 C 0.09691 0.50680 0.19518
 C196 C 0.10808 0.47741 0.23238
 C197 C 0.12886 0.53854 0.27118
 C198 C 0.10487 0.50367 0.27241
 C199 C 0.17837 0.50516 0.22624
 C200 C 0.15461 0.46998 0.22772
 H201 H 0.11543 0.56650 0.17074
 H202 H 0.08857 0.44889 0.23387
 H203 H 0.13140 0.55994 0.29726
 H204 H 0.21171 0.50594 0.22337
 C205 C -0.17283 1.03847 0.25189
 C206 C -0.14380 1.03849 0.29137
 C207 C -0.11821 1.00597 0.29429
 C208 C -0.12411 0.97592 0.25720
 C209 C -0.14318 1.03595 0.21408
 C210 C -0.11768 1.00313 0.21660
 C211 C -0.19487 0.99898 0.25334
 C212 C -0.16831 0.96430 0.25680
 H213 H -0.14123 1.06397 0.31318
 H214 H -0.10222 0.95020 0.25870
 H215 H -0.14343 1.05759 0.18737
 H216 H -0.22839 0.99601 0.25238
 C217 C 0.35691 0.54662 -0.24441
 C218 C 0.38156 0.53902 -0.20277
 C219 C 0.40325 0.50367 -0.20195
 C220 C 0.39835 0.47902 -0.24347
 C221 C 0.38893 0.54477 -0.28012
 C222 C 0.41066 0.50933 -0.27990
 C223 C 0.32969 0.50795 -0.25006
 C224 C 0.35121 0.47240 -0.24899
 H225 H 0.38113 0.55957 -0.17588
 H226 H 0.41563 0.44995 -0.24333
 H227 H 0.39152 0.56820 -0.30506
 H228 H 0.29641 0.50913 -0.25462
 C229 C 0.66001 0.04674 -0.26830
 C230 C 0.62625 0.04110 -0.30289
 C231 C 0.60306 0.00603 -0.29804
 C232 C 0.61563 -0.02034 -0.25886
 C233 C 0.63655 0.04404 -0.22593
 C234 C 0.61304 0.00903 -0.22113
 C235 C 0.68532 0.00747 -0.26935
 C236 C 0.66210 -0.02778 -0.26426
 H237 H 0.62033 0.06355 -0.32824
 H238 H 0.59653 -0.04889 -0.25460
 H239 H 0.63862 0.06788 -0.20225
 H240 H 0.71863 0.00816 -0.27280
 C241 C 0.04305 0.23250 0.87107
 C242 C 0.05109 0.27081 0.89823
 C243 C 0.01938 0.27968 0.92477
 C244 C -0.01750 0.24872 0.92159
 C245 C 0.03300 0.19838 0.90407
 C246 C 0.00167 0.20684 0.93067
 C247 C 0.00403 0.23979 0.84818
 C248 C -0.02944 0.24893 0.87620
 H249 H 0.07871 0.29015 0.89521
 H250 H -0.04346 0.25430 0.94339
 H251 H 0.04852 0.16919 0.90533
 H252 H 0.00074 0.23808 0.81368
 C253 C 0.52367 0.23966 0.13680
 C254 C 0.51482 0.20981 0.10032
 C255 C 0.48288 0.22053 0.07380
 C256 C 0.46230 0.26039 0.08637
 C257 C 0.53013 0.28149 0.11417
 C258 C 0.49806 0.29243 0.08750
 C259 C 0.48233 0.24246 0.16000
 C260 C 0.45006 0.25322 0.13355
 H261 H 0.53058 0.18097 0.09766
 H262 H 0.43612 0.26908 0.06470
 H263 H 0.55723 0.30092 0.11995
 H264 H 0.47939 0.23656 0.19408
 C265 C 0.03436 0.73726 0.63974
 C266 C 0.02753 0.70289 0.60708
 C267 C -0.00481 0.70880 0.57929
 C268 C -0.02754 0.74872 0.58647
 C269 C 0.03880 0.77655 0.61183
 C270 C 0.00623 0.78251 0.58393
 C271 C -0.00778 0.74058 0.66175
 C272 C -0.04017 0.74663 0.63369
 H273 H 0.04500 0.67487 0.60791
 H274 H -0.05387 0.75352 0.56361
 H275 H 0.06450 0.79828 0.61518
 H276 H -0.01112 0.73950 0.69623
 C277 C 0.55990 0.75713 0.36736
 C278 C 0.55570 0.79256 0.39841
 C279 C 0.52265 0.78891 0.42452
 C280 C 0.49660 0.74936 0.41779
 C281 C 0.56103 0.71861 0.39647
 C282 C 0.52780 0.71449 0.42308
 C283 C 0.51812 0.75436 0.34340
 C284 C 0.48490 0.75011 0.36972
 H285 H 0.57645 0.81922 0.39874
 H286 H 0.46966 0.74604 0.43945
 H287 H 0.58491 0.69593 0.39456
 H288 H 0.51576 0.75440 0.30877
 B289 B -0.02324 0.01185 1.04023
 B290 B -0.05332 0.00694 0.99624
 B291 B -0.01389 0.04109 0.99685
 B292 B 0.02634 0.02126 1.02506
 B293 B 0.01070 -0.02643 1.04223
 B294 B -0.03950 -0.03513 1.02450
 B295 B 0.00927 -0.02523 0.95453
 B296 B 0.03979 -0.02047 0.99796
 B297 B 0.00030 -0.05468 0.99826
 B298 B -0.03974 -0.03490 0.96974
 B299 B -0.02390 0.01318 0.95277
 B300 B 0.02570 0.02183 0.97033
 B301 B 0.50516 0.51523 0.54278
 B302 B 0.47282 0.51344 0.50016
 B303 B 0.51496 0.54486 0.49908
 B304 B 0.55440 0.52130 0.52534
 B305 B 0.53586 0.47413 0.54221
 B306 B 0.48479 0.46976 0.52663
 B307 B 0.53096 0.47761 0.45457
 B308 B 0.56354 0.47923 0.49695
 B309 B 0.52164 0.44801 0.49782
 B310 B 0.48216 0.47131 0.47186
 B311 B 0.50045 0.51850 0.45525
 B312 B 0.55150 0.52280 0.47045
 B313 B 0.51464 0.96860 0.55011
 B314 B 0.53975 0.97106 0.50334
 B315 B 0.49426 0.94490 0.50718
 B316 B 0.46301 0.97007 0.54017
 B317 B 0.48992 1.01291 0.55660
 B318 B 0.53798 1.01298 0.53393
 B319 B 0.48005 1.01829 0.46956
 B320 B 0.45487 1.01614 0.51618
 B321 B 0.50055 1.04203 0.51268
 B322 B 0.53139 1.01691 0.47953
 B323 B 0.50462 0.97391 0.46318
 B324 B 0.45660 0.97406 0.48578
 B325 B 0.00450 0.46948 1.04170
 B326 B 0.04028 0.48205 1.00488
 B327 B 0.00134 0.44903 0.99267
 B328 B -0.04226 0.46384 1.01683
 B329 B -0.02958 0.50774 1.04383
 B330 B 0.02215 0.51859 1.03668
 B331 B -0.01667 0.52284 0.95887
 B332 B -0.05251 0.51021 0.99517
 B333 B -0.01380 0.54324 1.00738
 B334 B 0.02980 0.52845 0.98343
 B335 B 0.01718 0.48480 0.95635
 B336 B -0.03438 0.47383 0.96349
 B337 B 0.01792 0.50990 0.45125
 B338 B 0.04810 0.50802 0.49523
 B339 B 0.00794 0.53969 0.49258
 B340 B -0.03164 0.51667 0.46535
 B341 B -0.01493 0.46942 0.45160
 B342 B 0.03501 0.46438 0.47012
 B343 B -0.01464 0.47304 0.53924
 B344 B -0.04479 0.47440 0.49487
 B345 B -0.00434 0.44290 0.49753
 B346 B 0.03491 0.46618 0.52487
 B347 B 0.01837 0.51363 0.53846
 B348 B -0.03160 0.51849 0.51989
 B349 B 0.50973 0.02467 -0.05106
 B350 B 0.53565 0.02248 -0.00428
 B351 B 0.49679 0.05531 -0.01127
 B352 B 0.45915 0.03316 -0.04158
 B353 B 0.47553 -0.01489 -0.05320
 B354 B 0.52356 -0.02115 -0.03006
 B355 B 0.46890 -0.01034 0.03393
 B356 B 0.44239 -0.00806 -0.01265
 B357 B 0.48137 -0.04088 -0.00624
 B358 B 0.51889 -0.01859 0.02415
 B359 B 0.50266 0.02949 0.03580
 B360 B 0.45462 0.03554 0.01297
 B361 B 0.48971 0.48182 -0.04561
 B362 B 0.46262 0.49116 -0.00168
 B363 B 0.50442 0.46159 0.00179
 B364 B 0.54074 0.48062 -0.03222
 B365 B 0.52019 0.52290 -0.05672
 B366 B 0.47135 0.52911 -0.03799
 B367 B 0.52556 0.53718 0.02930
 B368 B 0.55297 0.52819 -0.01456
 B369 B 0.51089 0.55729 -0.01833
 B370 B 0.47492 0.53826 0.01572
 B371 B 0.49538 0.49576 0.04038
 B372 B 0.54426 0.48989 0.02158
 B373 B -0.01074 0.97576 0.45492
 B374 B -0.03903 0.97974 0.49905
 B375 B 0.00220 0.94929 0.49962
 B376 B 0.03980 0.97184 0.46951
 B377 B 0.02100 1.01736 0.45085
 B378 B -0.02843 1.02193 0.46896
 B379 B 0.02370 1.01985 0.53829
 B380 B 0.05238 1.01618 0.49432
 B381 B 0.01101 1.04637 0.49369
 B382 B -0.02650 1.02375 0.52356
 B383 B -0.00757 0.97820 0.54246
 B384 B 0.04176 0.97384 0.52432
 B385 B 0.75866 0.23731 0.18968
 B386 B 0.75817 0.20975 0.23574
 B387 B 0.78950 0.25152 0.23064
 B388 B 0.76480 0.28739 0.20061
 B389 B 0.71687 0.26740 0.18778
 B390 B 0.71334 0.21875 0.20925
 B391 B 0.72267 0.27248 0.27468
 B392 B 0.72318 0.29961 0.22866
 B393 B 0.69183 0.25822 0.23399
 B394 B 0.71629 0.22213 0.26388
 B395 B 0.76429 0.24233 0.27684
 B396 B 0.76785 0.29089 0.25519
 B397 B 0.71598 0.77478 0.70132
 B398 B 0.73029 0.80169 0.74449
 B399 B 0.69361 0.76467 0.74836
 B400 B 0.70585 0.72558 0.71628
 B401 B 0.75193 0.73944 0.69257
 B402 B 0.76654 0.78718 0.71002
 B403 B 0.76527 0.73492 0.77908
 B404 B 0.75111 0.70798 0.73586
 B405 B 0.78774 0.74514 0.73223
 B406 B 0.77533 0.78407 0.76421
 B407 B 0.72942 0.77027 0.78776
 B408 B 0.71490 0.72244 0.77044
 B409 B 0.27322 0.28191 0.79701
 B410 B 0.26876 0.30442 0.74859
 B411 B 0.30176 0.26597 0.75628
 B412 B 0.28074 0.23128 0.79089
 B413 B 0.23324 0.24903 0.80385
 B414 B 0.22606 0.29490 0.77772
 B415 B 0.23247 0.23580 0.71773
 B416 B 0.23726 0.21318 0.76635
 B417 B 0.20421 0.25193 0.75847
 B418 B 0.22560 0.28659 0.72390
 B419 B 0.27293 0.26863 0.71069
 B420 B 0.27991 0.22258 0.73694
 B421 B 0.24398 0.72975 0.29250
 B422 B 0.24891 0.70457 0.24652
 B423 B 0.22004 0.74665 0.24789
 B424 B 0.24302 0.78067 0.28155
 B425 B 0.28716 0.75862 0.30061
 B426 B 0.29035 0.71083 0.27923
 B427 B 0.29369 0.76757 0.21382
 B428 B 0.28924 0.79277 0.25964
 B429 B 0.31775 0.75052 0.25847
 B430 B 0.29486 0.71677 0.22493
 B431 B 0.25064 0.73898 0.20558
 B432 B 0.24731 0.78656 0.22725
 B433 B 0.27056 0.73192 0.70809
 B434 B 0.26176 0.70196 0.75136
 B435 B 0.29827 0.73922 0.75328
 B436 B 0.28207 0.77998 0.72381
 B437 B 0.23384 0.76722 0.70395
 B438 B 0.22163 0.71824 0.72111
 B439 B 0.23024 0.76624 0.79145
 B440 B 0.23948 0.79583 0.74795
 B441 B 0.20251 0.75880 0.74608
 B442 B 0.21870 0.71783 0.77576
 B443 B 0.26705 0.73061 0.79557
 B444 B 0.27943 0.77950 0.77848
 B445 B 0.20886 0.26946 0.19744
 B446 B 0.21869 0.29919 0.24008
 B447 B 0.18378 0.26025 0.24333
 B448 B 0.20066 0.22055 0.21480
 B449 B 0.24717 0.23585 0.19382
 B450 B 0.25793 0.28504 0.20925
 B451 B 0.25491 0.23628 0.28106
 B452 B 0.24521 0.20664 0.23871
 B453 B 0.27998 0.24542 0.23516
 B454 B 0.26333 0.28499 0.26393
 B455 B 0.21657 0.26988 0.28486
 B456 B 0.20590 0.22066 0.26949
 B457 B 0.78663 0.75524 0.30388
 B458 B 0.78122 0.78416 0.25892
 B459 B 0.81492 0.74541 0.26049
 B460 B 0.79474 0.70612 0.29039
 B461 B 0.74700 0.72101 0.30651
 B462 B 0.73924 0.76983 0.28707
 B463 B 0.74575 0.71927 0.21918
 B464 B 0.75125 0.69081 0.26411
 B465 B 0.71770 0.72920 0.26219
 B466 B 0.73781 0.76843 0.23246
 B467 B 0.78533 0.75361 0.21608
 B468 B 0.79323 0.70480 0.23557
 B469 B 0.73322 0.23157 0.79869
 B470 B 0.74104 0.21414 0.74958
 B471 B 0.70782 0.25202 0.75678
 B472 B 0.72671 0.28282 0.79591
 B473 B 0.77307 0.26296 0.81242
 B474 B 0.78157 0.21994 0.78376
 B475 B 0.77933 0.28513 0.72774
 B476 B 0.77188 0.30267 0.77714
 B477 B 0.80486 0.26456 0.76969
 B478 B 0.78571 0.23380 0.73090
 B479 B 0.73938 0.25367 0.71436
 B480 B 0.73116 0.29701 0.74303
 C481 C 0.43771 1.01904 0.31622
 C482 C 0.43541 1.03623 0.35480
 C483 C 0.46587 1.02722 0.38904
 C484 C 0.46060 1.04084 0.42881
 H485 H 0.40851 1.05362 0.36286
 H486 H 0.48943 1.00501 0.38282
 H487 H 0.46378 0.99989 0.30948
 H488 H 0.43679 1.06291 0.43414
 C489 C -0.05962 0.51836 0.81069
 C490 C -0.05585 0.54282 0.84450
 C491 C -0.02634 0.53252 0.87894
 C492 C -0.02999 0.54838 0.91778
 H493 H -0.07771 0.56680 0.84976
 H494 H -0.00668 0.50642 0.87453
 H495 H -0.03856 0.49307 0.80800
 H496 H -0.05026 0.57398 0.92228
 C497 C 0.07197 0.00448 0.81578
 C498 C 0.05629 -0.02601 0.84059
 C499 C 0.03061 -0.01605 0.87700
 C500 C 0.02648 -0.04154 0.91102
 H501 H 0.06427 -0.05766 0.83658
 H502 H 0.01889 0.01485 0.87795
 H503 H 0.06213 0.03562 0.82095
 H504 H 0.03949 -0.07189 0.91081
 C505 C 0.56588 0.50136 0.30255
 C506 C 0.56729 0.47606 0.33694
 C507 C 0.54050 0.48217 0.37368
 C508 C 0.54585 0.46069 0.41037
 H509 H 0.59140 0.45352 0.34004
 H510 H 0.52012 0.50815 0.37231
 H511 H 0.54304 0.52526 0.30080
 H512 H 0.56653 0.43494 0.41143
 C513 C 0.61746 0.53736 0.15312
 C514 C 0.58468 0.55587 0.13512
 C515 C 0.57832 0.55366 0.08834
 C516 C 0.54180 0.56213 0.06964
 H517 H 0.56024 0.56741 0.15463
 H518 H 0.60090 0.53697 0.07082
 H519 H 0.64166 0.52681 0.13255
 H520 H 0.51876 0.57787 0.08768
 C521 C 0.11600 1.01036 0.66362
 C522 C 0.08058 1.02770 0.64531
 C523 C 0.07405 1.02565 0.60125
 C524 C 0.03935 1.03896 0.58201
 H525 H 0.05714 1.04064 0.66516
 H526 H 0.09590 1.00857 0.58315
 H527 H 0.14097 1.00245 0.64262
 H528 H 0.01729 1.05612 0.59994
 C529 C -0.10685 0.49781 0.65896
 C530 C -0.07492 0.47587 0.64582
 C531 C -0.06628 0.47378 0.59995
 C532 C -0.03070 0.45919 0.58524
 H533 H -0.05332 0.46240 0.66870
 H534 H -0.08741 0.48952 0.57821
 H535 H -0.12906 0.50970 0.63569
 H536 H -0.00912 0.44426 0.60710
 C537 C 0.38515 0.00979 0.16265
 C538 C 0.41451 -0.01146 0.14392
 C539 C 0.42034 -0.00756 0.09735
 C540 C 0.45108 -0.02655 0.07817
 H541 H 0.43592 -0.02949 0.16321
 H542 H 0.40223 0.01490 0.07962
 H543 H 0.36265 0.02612 0.14302
 H544 H 0.46923 -0.04876 0.09617
 C545 C 0.33148 0.44553 0.02710
 C546 C 0.34172 0.47419 -0.00247
 C547 C 0.38344 0.49303 -0.00546
 C548 C 0.41772 0.47265 0.00553
 H549 H 0.31914 0.48315 -0.02678
 H550 H 0.38588 0.52303 -0.02091
 H551 H 0.35348 0.43705 0.05215
 H552 H 0.41529 0.44179 0.01873
 C553 C -0.17331 0.93761 0.51420
 C554 C -0.15849 0.95856 0.48022
 C555 C -0.11652 0.97720 0.47945
 C556 C -0.08458 0.96157 0.50197
 H557 H -0.17709 0.96067 0.45105
 H558 H -0.11140 1.00235 0.45681
 H559 H -0.15561 0.93673 0.54400
 H560 H -0.08910 0.93485 0.52265
 C561 C -0.18748 0.04828 0.98073
 C562 C -0.15363 0.06376 0.96176
 C563 C -0.11478 0.04189 0.96040
 C564 C -0.09941 0.02163 0.99471
 H565 H -0.15321 0.09468 0.94839
 H566 H -0.09597 0.04808 0.93249
 H567 H -0.18731 0.01736 0.99428
 H568 H -0.11733 0.01806 1.02368
 C569 C 0.33874 0.55942 0.50670
 C570 C 0.37429 0.58037 0.51493
 C571 C 0.41553 0.56258 0.51938
 C572 C 0.42665 0.52853 0.49992
 H573 H 0.37328 0.61315 0.52000
 H574 H 0.43842 0.58085 0.53656
 H575 H 0.33838 0.52653 0.50233
 H576 H 0.40418 0.51131 0.48093
 C577 C 0.18037 0.56392 0.49707
 C578 C 0.16964 0.52620 0.51194
 C579 C 0.12626 0.51034 0.51504
 C580 C 0.09421 0.52597 0.49276
 H581 H 0.19329 0.50633 0.52500
 H582 H 0.12114 0.48370 0.53575
 H583 H 0.15663 0.58519 0.48733
 H584 H 0.09937 0.55105 0.47017
 C585 C 0.66645 0.06951 0.02050
 C586 C 0.65333 0.02822 0.02198
 C587 C 0.61220 0.01482 0.01661
 C588 C 0.58203 0.03834 0.00018
 H589 H 0.67569 0.00467 0.02895
 H590 H 0.60540 -0.01713 0.02454
 H591 H 0.64382 0.09337 0.02252
 H592 H 0.58895 0.06904 -0.01161
 C593 C 0.67209 0.92203 0.49186
 C594 C 0.63904 0.90030 0.50619
 C595 C 0.59667 0.91610 0.51012
 C596 C 0.58390 0.95239 0.49472
 H597 H 0.64309 0.86978 0.51951
 H598 H 0.57580 0.89659 0.52823
 H599 H 0.66895 0.95355 0.48110
 H600 H 0.60459 0.97170 0.47584
 C601 C 0.17592 0.43846 1.01010
 C602 C 0.14143 0.41549 1.01592
 C603 C 0.09888 0.43071 1.01669
 C604 C 0.08742 0.46932 1.00815
 H605 H 0.14335 0.38284 1.02134
 H606 H 0.07580 0.40729 1.02387
 H607 H 0.17416 0.47141 1.00605
 H608 H 0.11027 0.49306 1.00076
 C609 C -0.03857 0.32240 0.41189
 C610 C -0.02018 0.33467 0.44849
 C611 C -0.03004 0.37543 0.46517
 C612 C -0.00730 0.39404 0.49588
 H613 H 0.00422 0.31679 0.46340
 H614 H -0.05296 0.39296 0.44736
 H615 H -0.06140 0.34231 0.39697
 H616 H 0.01615 0.37695 0.51334
 C617 C 0.48775 -0.15975 -0.07075
 C618 C 0.45514 -0.15066 -0.04675
 C619 C 0.44942 -0.10867 -0.03211
 C620 C 0.47710 -0.08937 -0.00672
 H621 H 0.42891 -0.17195 -0.04488
 H622 H 0.42409 -0.09234 -0.04701
 H623 H 0.51248 -0.13705 -0.07536
 H624 H 0.50231 -0.10660 0.00758
 C625 C 0.00587 -0.17962 1.08986
 C626 C 0.00835 -0.16607 1.04905
 C627 C 0.00338 -0.12182 1.04067
 C628 C 0.00714 -0.10290 1.00222
 H629 H 0.01344 -0.18657 1.02288
 H630 H -0.00434 -0.10381 1.06817
 H631 H 0.00230 -0.15728 1.11485
 H632 H 0.01467 -0.12005 0.97412
 C633 C 0.47557 0.31925 0.56075
 C634 C 0.50191 0.33455 0.53143
 C635 C 0.49418 0.37497 0.51142
 C636 C 0.52579 0.39965 0.49926
 H637 H 0.53198 0.32089 0.52800
 H638 H 0.46336 0.38726 0.51384
 H639 H 0.44623 0.33415 0.56498
 H640 H 0.55674 0.38755 0.49821
 C641 C 0.51021 1.17099 0.59800
 C642 C 0.50877 1.15399 0.55904
 C643 C 0.50950 1.10890 0.55486
 C644 C 0.50601 1.09053 0.51669
 H645 H 0.50572 1.17279 0.53025
 H646 H 0.51102 1.09038 0.58406
 H647 H 0.51399 1.15114 0.62602
 H648 H 0.50460 1.10901 0.48746
 C649 C -0.00182 0.66463 1.06811
 C650 C 0.00360 0.66116 1.02574
 C651 C 0.00330 0.62066 1.00515
 C652 C -0.02171 0.58957 1.01796
 H653 H 0.01347 0.68756 1.00662
 H654 H 0.02588 0.61604 0.98049
 H655 H -0.00747 0.63720 1.08752
 H656 H -0.04541 0.59502 1.04124
 C657 C 0.49739 0.68964 -0.06969
 C658 C 0.51376 0.65591 -0.09007
 C659 C 0.52099 0.61735 -0.07136
 C660 C 0.51168 0.60487 -0.03109
 H661 H 0.52227 0.65891 -0.12337
 H662 H 0.53343 0.59548 -0.09316
 H663 H 0.49387 0.68862 -0.03525
 H664 H 0.49934 0.62570 -0.00823
 C665 C -0.00143 1.17091 0.40159
 C666 C 0.00404 1.15765 0.44222
 C667 C 0.00855 1.11311 0.44998
 C668 C 0.01338 1.09518 0.48882
 H669 H 0.00443 1.17864 0.46873
 H670 H 0.00581 1.09388 0.42205
 H671 H -0.00062 1.14864 0.37622
 H672 H 0.01579 1.11361 0.51731
 C673 C 0.77417 0.70833 0.93228
 C674 C 0.78987 0.69862 0.89456
 C675 C 0.78569 0.72703 0.85780
 C676 C 0.78843 0.71325 0.81797
 H677 H 0.79983 0.66756 0.88933
 H678 H 0.77349 0.75720 0.86323
 H679 H 0.76198 0.73875 0.93632
 H680 H 0.80029 0.68290 0.81300
 C681 C 0.25517 0.19929 0.43628
 C682 C 0.27210 0.19534 0.39765
 C683 C 0.26270 0.22405 0.36205
 C684 C 0.27648 0.21732 0.32257
 H685 H 0.28917 0.16805 0.39071
 H686 H 0.24027 0.24763 0.36721
 H687 H 0.23637 0.22568 0.44225
 H688 H 0.29875 0.19347 0.31790
 C689 C 0.73890 0.29099 0.42804
 C690 C 0.71756 0.30288 0.39320
 C691 C 0.71690 0.27690 0.35532
 C692 C 0.70653 0.29225 0.31683
 H693 H 0.70438 0.33320 0.39128
 H694 H 0.73070 0.24689 0.35807
 H695 H 0.75388 0.26147 0.42800
 H696 H 0.69355 0.32258 0.31440
 C697 C 0.24746 0.80705 0.94357
 C698 C 0.22486 0.80990 0.90712
 C699 C 0.23143 0.78148 0.87174
 C700 C 0.21247 0.78609 0.83333
 H701 H 0.20440 0.83549 0.90185
 H702 H 0.25573 0.75928 0.87597
 H703 H 0.26914 0.78224 0.94744
 H704 H 0.18849 0.80862 0.82908
 C705 C 0.28582 0.85925 0.08961
 C706 C 0.30390 0.82458 0.10819
 C707 C 0.30380 0.81932 0.15272
 C708 C 0.31564 0.78421 0.17172
 H709 H 0.31419 0.80000 0.08832
 H710 H 0.28826 0.84188 0.17147
 H711 H 0.28024 0.88498 0.11018
 H712 H 0.33166 0.76177 0.15327
 C713 C 0.78952 0.30318 0.57545
 C714 C 0.79764 0.32253 0.61430
 C715 C 0.80130 0.29782 0.65116
 C716 C 0.79892 0.31288 0.69059
 H717 H 0.79597 0.35552 0.61699
 H718 H 0.79962 0.26475 0.64744
 H719 H 0.79230 0.27002 0.57503
 H720 H 0.80042 0.34578 0.69484
 C721 C 0.24113 0.14760 0.58934
 C722 C 0.22271 0.17831 0.60895
 C723 C 0.23328 0.18733 0.65400
 C724 C 0.21295 0.21516 0.67613
 H725 H 0.20275 0.19889 0.59089
 H726 H 0.26122 0.17404 0.66739
 H727 H 0.25919 0.12595 0.60823
 H728 H 0.18533 0.22870 0.66225
 C729 C 0.73359 0.67748 0.08320
 C730 C 0.73388 0.65127 0.11670
 C731 C 0.73958 0.66510 0.16110
 C732 C 0.72744 0.70141 0.17571
 H733 H 0.73749 0.61883 0.11194
 H734 H 0.75779 0.64496 0.18153
 H735 H 0.73297 0.71016 0.08885
 H736 H 0.70850 0.72137 0.15583
 C737 C 0.17894 0.58344 0.22973
 C738 C 0.20909 0.58973 0.25920
 C739 C 0.23009 0.62976 0.26618
 C740 C 0.22932 0.66087 0.23759
 H741 H 0.21631 0.56526 0.28195
 H742 H 0.24631 0.63354 0.29657
 H743 H 0.16902 0.60805 0.20848
 H744 H 0.21625 0.65637 0.20592
 C745 C 0.68485 0.08613 0.72630
 C746 C 0.71711 0.09498 0.75232
 C747 C 0.73837 0.13553 0.75462
 C748 C 0.72401 0.17020 0.73641
 H749 H 0.72737 0.07182 0.77527
 H750 H 0.76477 0.13717 0.77646
 H751 H 0.67393 0.10842 0.70289
 H752 H 0.69705 0.16974 0.71545
 C753 C 0.80008 0.07602 0.25109
 C754 C 0.78478 0.09323 0.21488
 C755 C 0.76584 0.13432 0.21277
 C756 C 0.77540 0.16449 0.24034
 H757 H 0.78704 0.07723 0.18494
 H758 H 0.74614 0.14080 0.18514
 H759 H 0.79449 0.09034 0.28145
 H760 H 0.79590 0.15852 0.26735
 C761 C 0.33296 0.58583 0.75509
 C762 C 0.30253 0.59234 0.78292
 C763 C 0.28080 0.63173 0.78455
 C764 C 0.27501 0.65565 0.74971
 H765 H 0.29560 0.56931 0.80745
 H766 H 0.27100 0.64183 0.81560
 H767 H 0.34224 0.60997 0.73262
 H768 H 0.28275 0.64431 0.71851
 C769 C 0.33184 0.43087 0.74902
 C770 C 0.29213 0.42323 0.75932
 C771 C 0.27347 0.38159 0.76264
 C772 C 0.28610 0.34962 0.74025
 H773 H 0.27319 0.44783 0.77014
 H774 H 0.24813 0.37755 0.78479
 H775 H 0.35191 0.40568 0.74235
 H776 H 0.31004 0.35380 0.71656
 C777 C 0.81568 0.92363 0.25934
 C778 C 0.83911 0.89059 0.27500
 C779 C 0.82622 0.84913 0.27698
 C780 C 0.79361 0.83215 0.25589
 H781 H 0.86887 0.89716 0.29008
 H782 H 0.84584 0.82965 0.29632
 H783 H 0.78308 0.91850 0.25201
 H784 H 0.77442 0.85101 0.23510
 C785 C 0.67860 0.93016 0.73687
 C786 C 0.71698 0.92102 0.72468
 C787 C 0.73203 0.87855 0.72354
 C788 C 0.71798 0.84812 0.74938
 H789 H 0.73737 0.94474 0.71165
 H790 H 0.75557 0.87249 0.70027
 H791 H 0.65722 0.90566 0.74632
 H792 H 0.69615 0.85448 0.77424
 C793 C 0.17044 0.42789 0.22655
 C794 C 0.21063 0.41894 0.22325
 C795 C 0.22526 0.37641 0.22307
 C796 C 0.20500 0.34512 0.24262
 H797 H 0.23384 0.44296 0.21861
 H798 H 0.25388 0.37113 0.20658
 H799 H 0.14738 0.40328 0.22828
 H800 H 0.17804 0.35081 0.26156
 C801 C 0.08024 0.22069 0.84543
 C802 C 0.09414 0.23964 0.80978
 C803 C 0.13705 0.23155 0.79664
 C804 C 0.15493 0.24834 0.76179
 H805 H 0.07612 0.26304 0.79347
 H806 H 0.15603 0.21469 0.81946
 H807 H 0.10038 0.19842 0.86092
 H808 H 0.13644 0.26594 0.73907
 C809 C 0.59649 0.76415 0.33847
 C810 C 0.60786 0.73827 0.30823
 C811 C 0.64528 0.74884 0.28349
 C812 C 0.66931 0.72029 0.26714
 H813 H 0.59158 0.70912 0.30401
 H814 H 0.65672 0.78037 0.28483
 H815 H 0.61458 0.79236 0.34256
 H816 H 0.65827 0.68865 0.26662
 C817 C 0.55976 0.22593 0.16434
 C818 C 0.57730 0.24861 0.19524
 C819 C 0.61801 0.23664 0.21281
 C820 C 0.64299 0.26334 0.23327
 H821 H 0.56437 0.27783 0.20333
 H822 H 0.63005 0.20753 0.20300
 H823 H 0.57404 0.19727 0.15638
 H824 H 0.63085 0.29245 0.24268
 C825 C 0.07060 0.72803 0.66985
 C826 C 0.08995 0.75514 0.69576
 C827 C 0.12837 0.74277 0.71900
 C828 C 0.15481 0.76960 0.73798
 H829 H 0.07964 0.78650 0.69693
 H830 H 0.13753 0.71117 0.71600
 H831 H 0.08191 0.69692 0.66988
 H832 H 0.14615 0.80136 0.74065
 C833 C 0.91610 0.75241 0.64521
 C834 C 0.89913 0.74081 0.68254
 C835 C 0.85463 0.74770 0.68920
 C836 C 0.83509 0.73540 0.72491
 H837 H 0.91747 0.72604 0.70754
 H838 H 0.83746 0.76373 0.66407
 H839 H 0.89635 0.76572 0.62042
 H840 H 0.85190 0.71918 0.75009
 C841 C 0.40659 0.25740 0.14674
 C842 C 0.39117 0.24486 0.18463
 C843 C 0.34668 0.24989 0.19249
 C844 C 0.32812 0.23834 0.22916
 H845 H 0.41054 0.23068 0.20910
 H846 H 0.32840 0.26377 0.16681
 H847 H 0.38574 0.27062 0.12289
 H848 H 0.34582 0.22427 0.25509
 C849 C 0.44129 0.74505 0.35515
 C850 C 0.42785 0.74972 0.31444
 C851 C 0.38336 0.74424 0.30446
 C852 C 0.36658 0.75270 0.26572
 H853 H 0.44884 0.75834 0.28895
 H854 H 0.36349 0.73402 0.33047
 H855 H 0.41890 0.73756 0.37982
 H856 H 0.38598 0.76325 0.23953
 C857 C 0.92960 0.25730 0.86371
 C858 C 0.91436 0.26103 0.82160
 C859 C 0.87171 0.26564 0.81493
 C860 C 0.85383 0.26856 0.77590
 H861 H 0.93483 0.25937 0.79454
 H862 H 0.85215 0.26496 0.84289
 H863 H 0.90778 0.26124 0.88935
 H864 H 0.87272 0.26941 0.74747
 C865 C 0.56707 0.99746 0.67389
 C866 C 0.55384 0.95955 0.66427
 C867 C 0.52208 0.95540 0.63045
 C868 C 0.53401 0.94626 0.59102
 H869 H 0.56998 0.93276 0.67618
 H870 H 0.49355 0.97165 0.63479
 H871 H 0.55286 1.02350 0.65766
 H872 H 0.56423 0.93318 0.58763
 C873 C 0.06094 0.50108 1.16632
 C874 C 0.04599 0.46431 1.15443
 C875 C 0.01226 0.46346 1.12237
 C876 C 0.01776 0.44578 1.08457
 H877 H 0.06122 0.43625 1.16411
 H878 H -0.01029 0.48741 1.12490
 H879 H 0.04747 0.52861 1.15234
 H880 H 0.04112 0.42274 1.08249
 C881 C -0.08790 -0.00722 1.18307
 C882 C -0.07544 0.01922 1.15209
 C883 C -0.05024 0.00523 1.11655
 C884 C -0.04175 0.02961 1.08253
 H885 H -0.08524 0.05077 1.15158
 H886 H -0.04125 -0.02666 1.11679
 H887 H -0.07653 -0.03827 1.18350
 H888 H -0.05136 0.06126 1.08187
 C889 C 0.43918 0.49767 0.68578
 C890 C 0.45471 0.52392 0.65608
 C891 C 0.47696 0.50829 0.61899
 C892 C 0.49061 0.53306 0.58705
 H893 H 0.44916 0.55650 0.65753
 H894 H 0.47930 0.47528 0.61631
 H895 H 0.44635 0.46541 0.68407
 H896 H 0.48864 0.56604 0.58976
 C897 C 0.42665 0.49096 -0.16293
 C898 C 0.45730 0.46378 -0.16217
 C899 C 0.48411 0.45946 -0.12349
 C900 C 0.46821 0.45793 -0.08400
 H901 H 0.46725 0.45023 -0.19156
 H902 H 0.51699 0.46542 -0.12766
 H903 H 0.42039 0.50737 -0.13387
 H904 H 0.43538 0.45100 -0.08069
 C905 C -0.08322 1.00614 0.32519
 C906 C -0.06754 0.97266 0.34432
 C907 C -0.03445 0.97888 0.37687
 C908 C -0.03161 0.95624 0.41316
 H909 H -0.08096 0.94241 0.33873
 H910 H -0.01652 1.00735 0.37409
 H911 H -0.07133 1.03614 0.33464
 H912 H -0.05071 0.92867 0.41703
 C913 C 0.07851 0.49127 0.30868
 C914 C 0.06611 0.51773 0.33781
 C915 C 0.04341 0.50285 0.37543
 C916 C 0.03529 0.52770 0.40769
 H917 H 0.07380 0.55018 0.33495
 H918 H 0.03568 0.47031 0.37793
 H919 H 0.06909 0.45917 0.31139
 H920 H 0.04358 0.56009 0.40554
 C921 C 0.58610 -0.00054 -0.18435
 C922 C 0.57208 0.02771 -0.15786
 C923 C 0.54555 0.01475 -0.12199
 C924 C 0.53237 0.04102 -0.09290
 H925 H 0.58015 0.05994 -0.16227
 H926 H 0.53815 -0.01777 -0.11836
 H927 H 0.57623 -0.03236 -0.17992
 H928 H 0.53991 0.07350 -0.09601
 C929 C 0.67951 0.59223 -0.02548
 C930 C 0.67186 0.55742 -0.00314
 C931 C 0.63262 0.53318 -0.00726
 C932 C 0.59686 0.54982 -0.02045
 H933 H 0.69476 0.54592 0.01946
 H934 H 0.63237 0.50218 0.00597
 H935 H 0.65827 0.60156 -0.05087
 H936 H 0.59630 0.58150 -0.03130
 C937 C 0.18251 1.06987 0.47888
 C938 C 0.17215 1.04076 0.50782
 C939 C 0.13189 1.01823 0.50537
 C940 C 0.09710 1.03663 0.49182
 H941 H 0.19260 1.03356 0.53456
 H942 H 0.13031 0.98739 0.51895
 H943 H 0.16235 1.07435 0.45110
 H944 H 0.09842 1.06834 0.48079
 C945 C 0.17412 -0.08977 1.03259
 C946 C 0.14394 -0.07782 1.00590
 C947 C 0.10632 -0.05818 1.02058
 C948 C 0.08572 -0.03441 0.99280
 H949 H 0.14729 -0.08216 0.97170
 H950 H 0.09433 -0.06527 1.05220
 H951 H 0.17319 -0.08261 1.06634
 H952 H 0.09944 -0.02729 0.96191
 C953 C 0.69087 0.39586 0.53198
 C954 C 0.66563 0.41678 0.50548
 C955 C 0.62939 0.43932 0.51985
 C956 C 0.60854 0.46214 0.49103
 H957 H 0.67062 0.41548 0.47119
 H958 H 0.61785 0.43434 0.55201
 H959 H 0.68863 0.39854 0.56642
 H960 H 0.62141 0.46681 0.45935
 C961 C -0.17051 0.40336 0.48739
 C962 C -0.14511 0.40658 0.52144
 C963 C -0.10290 0.42450 0.51939
 C964 C -0.09127 0.45672 0.49447
 H965 H -0.15274 0.39006 0.55084
 H966 H -0.08061 0.41021 0.54078
 H967 H -0.16090 0.41590 0.45659
 H968 H -0.11374 0.47173 0.47373
 C969 C 0.30973 -0.05659 -0.01450
 C970 C 0.33194 -0.04776 -0.04964
 C971 C 0.37133 -0.02373 -0.04812
 C972 C 0.39617 -0.02451 -0.01331
 H973 H 0.32290 -0.06050 -0.08025
 H974 H 0.38253 -0.01012 -0.07784
 H975 H 0.31697 -0.04080 0.01501
 H976 H 0.38639 -0.04100 0.01536
 C977 C 0.32809 1.08216 0.51175
 C978 C 0.36627 1.09923 0.51237
 C979 C 0.40566 1.07737 0.51310
 C980 C 0.41116 1.03737 0.52173
 H981 H 0.36966 1.13224 0.50835
 H982 H 0.43135 1.09660 0.50332
 H983 H 0.32316 1.04957 0.51745
 H984 H 0.38518 1.01789 0.53126
 C985 C -0.18217 0.58707 1.02401
 C986 C -0.15604 0.56902 0.99795
 C987 C -0.12064 0.54519 1.01401
 C988 C -0.09794 0.52538 0.98599
 H989 H -0.15932 0.57410 0.96357
 H990 H -0.11087 0.54735 1.04732
 H991 H -0.18123 0.58053 1.05820
 H992 H -0.10882 0.52346 0.95297
 C993 C -0.02032 0.67697 0.54961
 C994 C 0.00527 0.65222 0.52958
 C995 C -0.01009 0.61358 0.51055
 C996 C 0.01640 0.58784 0.49319
 H997 H 0.03846 0.65818 0.53141
 H998 H -0.04172 0.60356 0.51684
 H999 H -0.05358 0.67237 0.54627
 H1000 H 0.04783 0.59860 0.48727
 C1001 C 0.46636 0.19266 0.04065
 C1002 C 0.49187 0.16943 0.01865
 C1003 C 0.47760 0.13007 0.00075
 C1004 C 0.50554 0.10332 -0.01198
 H1005 H 0.52498 0.17604 0.02015
 H1006 H 0.44553 0.12041 0.00509
 H1007 H 0.43309 0.18757 0.03846
 H1008 H 0.53731 0.11382 -0.01589
 C1009 C -0.01310 0.17676 0.96316
 C1010 C 0.01441 0.15667 0.98789
 C1011 C 0.00653 0.11631 1.00875
 C1012 C -0.02094 0.08891 0.99284
 H1013 H 0.04633 0.16783 0.98891
 H1014 H 0.03035 0.10605 1.03109
 H1015 H -0.04581 0.16867 0.96365
 H1016 H -0.04340 0.09847 0.96875
 C1017 C 0.52024 0.67852 0.45205
 C1018 C 0.55139 0.65740 0.47017
 C1019 C 0.54710 0.61736 0.49342
 C1020 C 0.51252 0.59349 0.49393
 H1021 H 0.58290 0.66873 0.46583
 H1022 H 0.57601 0.60451 0.50483
 H1023 H 0.48834 0.66978 0.45821
 H1024 H 0.48375 0.60519 0.48112
 C1025 C 0.51320 0.82233 0.45372
 C1026 C 0.47473 0.83590 0.45816
 C1027 C 0.46777 0.87804 0.47277
 C1028 C 0.49135 0.89640 0.50301
 H1029 H 0.44906 0.81993 0.44244
 H1030 H 0.44508 0.89543 0.45456
 H1031 H 0.53926 0.84101 0.46500
 H1032 H 0.51141 0.87789 0.52306
 C1033 C 0.02055 0.31765 0.95025
 C1034 C -0.01062 0.32944 0.97500
 C1035 C -0.01277 0.37057 0.99439
 C1036 C 0.00922 0.40323 0.98007
 H1037 H -0.03696 0.30919 0.98064
 H1038 H -0.03641 0.37475 1.01809
 H1039 H 0.04799 0.33707 0.94700
 H1040 H 0.03131 0.40001 0.95475
 C1041 C 0.49685 0.33155 0.06236
 C1042 C 0.53155 0.35186 0.05021
 C1043 C 0.53328 0.39341 0.03013
 C1044 C 0.50084 0.41388 0.01367
 H1045 H 0.56135 0.33873 0.05781
 H1046 H 0.56360 0.40839 0.03088
 H1047 H 0.46669 0.34348 0.05422
 H1048 H 0.47072 0.39895 0.01099
 C1049 C 0.00156 0.81903 0.55542
 C1050 C 0.03418 0.83874 0.53783
 C1051 C 0.03272 0.87866 0.51427
 C1052 C -0.00144 0.90087 0.50680
 H1053 H 0.06480 0.82654 0.54336
 H1054 H 0.06284 0.89241 0.50738
 H1055 H -0.02960 0.82917 0.54893
 H1056 H -0.03192 0.88799 0.51305
 C1057 C 0.23259 0.34053 0.08980
 C1058 C 0.19324 0.34277 0.10285
 C1059 C 0.18034 0.32244 0.14330
 C1060 C 0.19112 0.28390 0.15226
 H1061 H 0.17269 0.36472 0.08790
 H1062 H 0.16768 0.34141 0.16763
 H1063 H 0.25464 0.32288 0.10870
 H1064 H 0.20049 0.26535 0.12572
 C1065 C 0.73021 0.83701 0.58618
 C1066 C 0.70158 0.80653 0.58465
 C1067 C 0.69419 0.78046 0.62297
 C1068 C 0.69384 0.79665 0.66207
 H1069 H 0.68849 0.79643 0.55444
 H1070 H 0.69741 0.74769 0.61928
 H1071 H 0.74557 0.84365 0.61655
 H1072 H 0.68896 0.82926 0.66481
 C1073 C 0.24858 0.66522 0.56902
 C1074 C 0.27664 0.68030 0.59712
 C1075 C 0.26375 0.70618 0.63205
 C1076 C 0.28863 0.71363 0.66601
 H1077 H 0.30886 0.67192 0.59600
 H1078 H 0.23185 0.71599 0.63173
 H1079 H 0.21677 0.67514 0.56978
 H1080 H 0.32019 0.70294 0.66688
 C1081 C 0.76764 0.15659 0.07771
 C1082 C 0.75499 0.19525 0.07394
 C1083 C 0.75434 0.22368 0.10992
 C1084 C 0.77476 0.21804 0.14732
 H1085 H 0.74013 0.20543 0.04432
 H1086 H 0.73217 0.24801 0.10634
 H1087 H 0.78308 0.14534 0.10648
 H1088 H 0.79848 0.19527 0.15083
 C1089 C 0.72435 0.17016 0.94417
 C1090 C 0.71656 0.16813 0.90221
 C1091 C 0.71883 0.20513 0.87464
 C1092 C 0.71155 0.20203 0.83262
 H1093 H 0.71362 0.13832 0.88734
 H1094 H 0.73300 0.23287 0.88752
 H1095 H 0.72554 0.19957 0.95986
 H1096 H 0.69693 0.17417 0.82066
 C1097 C 0.26318 0.66960 0.42965
 C1098 C 0.23060 0.67946 0.40487
 C1099 C 0.23698 0.71176 0.37181
 C1100 C 0.22077 0.70881 0.33216
 H1101 H 0.20208 0.66124 0.40582
 H1102 H 0.26164 0.73412 0.37802
 H1103 H 0.29254 0.68589 0.42488
 H1104 H 0.19685 0.68580 0.32564
 C1105 C 0.75639 0.81871 0.44099
 C1106 C 0.78701 0.80747 0.41538
 C1107 C 0.77701 0.78046 0.37944
 C1108 C 0.80350 0.77375 0.34769
 H1109 H 0.81812 0.82022 0.41850
 H1110 H 0.74515 0.76936 0.37678
 H1111 H 0.72579 0.80471 0.43694
 H1112 H 0.83548 0.78420 0.35038
 C1113 C 0.25199 0.34149 0.94028
 C1114 C 0.27898 0.33632 0.90852
 C1115 C 0.26670 0.31087 0.87185
 C1116 C 0.29075 0.30584 0.83761
 H1117 H 0.30916 0.35140 0.90850
 H1118 H 0.23579 0.29714 0.87244
 H1119 H 0.22211 0.32562 0.93879
 H1120 H 0.32146 0.31991 0.83636
 C1121 C 0.80779 0.45163 0.75665
 C1122 C 0.80786 0.41816 0.78233
 C1123 C 0.78231 0.38139 0.77221
 C1124 C 0.79021 0.34558 0.79204
 H1125 H 0.82968 0.41582 0.80887
 H1126 H 0.75987 0.38276 0.74600
 H1127 H 0.78607 0.45265 0.72978
 H1128 H 0.81328 0.34469 0.81769
 C1129 C 0.30925 0.94674 0.26066
 C1130 C 0.32141 0.90879 0.27088
 C1131 C 0.29573 0.87189 0.26201
 C1132 C 0.31248 0.83503 0.26763
 H1133 H 0.35236 0.90432 0.28389
 H1134 H 0.26404 0.87474 0.25043
 H1135 H 0.27951 0.95110 0.24478
 H1136 H 0.34433 0.83329 0.27901
 C1137 C 0.18051 0.91786 0.75114
 C1138 C 0.19960 0.90579 0.71597
 C1139 C 0.21630 0.86405 0.71335
 C1140 C 0.22893 0.84268 0.74818
 H1141 H 0.19884 0.92462 0.68701
 H1142 H 0.21658 0.85028 0.68203
 H1143 H 0.17781 0.89692 0.77839
 H1144 H 0.23143 0.85723 0.77903
 C1145 C 0.66397 0.42336 0.21512
 C1146 C 0.70457 0.41815 0.20998
 C1147 C 0.72221 0.37675 0.20711
 C1148 C 0.70454 0.34391 0.22673
 H1149 H 0.72586 0.44433 0.21062
 H1150 H 0.75186 0.37413 0.19174
 H1151 H 0.64268 0.39722 0.21352
 H1152 H 0.67674 0.34752 0.24494
 C1153 C 0.70500 0.55861 0.26113
 C1154 C 0.71598 0.57824 0.29720
 C1155 C 0.73986 0.61754 0.29627
 C1156 C 0.73333 0.64533 0.26486
 H1157 H 0.70515 0.56704 0.32802
 H1158 H 0.75880 0.62557 0.32399
 H1159 H 0.71905 0.56813 0.23110
 H1160 H 0.71095 0.63812 0.23974
 C1161 C 0.20017 0.06416 0.74757
 C1162 C 0.20581 0.09643 0.77292
 C1163 C 0.22593 0.13481 0.75752
 C1164 C 0.22073 0.16894 0.77951
 H1165 H 0.19237 0.09626 0.80446
 H1166 H 0.24262 0.13552 0.72775
 H1167 H 0.21455 0.06456 0.71639
 H1168 H 0.20413 0.16662 0.80939
 C1169 C 0.31774 0.09327 0.24984
 C1170 C 0.29740 0.10252 0.21332
 C1171 C 0.27655 0.14211 0.20764
 C1172 C 0.25896 0.16068 0.24043
 H1173 H 0.30011 0.08339 0.18558
 H1174 H 0.27745 0.15680 0.17621
 H1175 H 0.31862 0.11503 0.27571
 H1176 H 0.25595 0.14476 0.27108
 C1177 C 0.82381 0.59505 0.73957
 C1178 C 0.80149 0.60421 0.70428
 C1179 C 0.78058 0.64413 0.70031
 C1180 C 0.76265 0.66116 0.73397
 H1181 H 0.80280 0.58507 0.67638
 H1182 H 0.78250 0.66066 0.66992
 H1183 H 0.82555 0.61706 0.76524
 H1184 H 0.75891 0.64330 0.76337
 C1185 C 0.94493 0.71389 0.18916
 C1186 C 0.92567 0.73900 0.21548
 C1187 C 0.88796 0.72551 0.23826
 C1188 C 0.86337 0.75336 0.25527
 H1189 H 0.93510 0.77112 0.21665
 H1190 H 0.87729 0.69390 0.23508
 H1191 H 0.93670 0.68145 0.18908
 H1192 H 0.87477 0.78470 0.25638
 C1193 C 0.43951 0.23800 0.69397
 C1194 C 0.41386 0.26369 0.71288
 C1195 C 0.37605 0.24867 0.73486
 C1196 C 0.35014 0.27525 0.75204
 H1197 H 0.41800 0.29653 0.70758
 H1198 H 0.36648 0.21682 0.73100
 H1199 H 0.43699 0.20528 0.70058
 H1200 H 0.36042 0.30690 0.75572
 C1201 C 0.41614 0.75184 0.82098
 C1202 C 0.40364 0.71403 0.80969
 C1203 C 0.36247 0.70717 0.78916
 C1204 C 0.34668 0.73269 0.75906
 H1205 H 0.41935 0.68754 0.82290
 H1206 H 0.34304 0.68367 0.80393
 H1207 H 0.39726 0.77764 0.81128
 H1208 H 0.36684 0.75570 0.74417
 C1209 C 0.92746 0.22432 0.29695
 C1210 C 0.89890 0.24786 0.27397
 C1211 C 0.86291 0.23091 0.25546
 C1212 C 0.83846 0.25461 0.23091
 H1213 H 0.90371 0.28097 0.27264
 H1214 H 0.85279 0.20044 0.26551
 H1215 H 0.93000 0.19207 0.28971
 H1216 H 0.85089 0.28398 0.21936
 C1217 C 0.06305 0.26374 0.31011
 C1218 C 0.06856 0.23936 0.27655
 C1219 C 0.10873 0.23643 0.25487
 C1220 C 0.13620 0.26777 0.25112
 H1221 H 0.04466 0.21738 0.26725
 H1222 H 0.11685 0.20617 0.24442
 H1223 H 0.08742 0.28528 0.31958
 H1224 H 0.12746 0.29826 0.25999
 C1225 C 0.56089 0.74656 0.82760
 C1226 C 0.58610 0.77116 0.80451
 C1227 C 0.62344 0.75442 0.78513
 C1228 C 0.64745 0.77691 0.75858
 H1229 H 0.58025 0.80373 0.80152
 H1230 H 0.63304 0.72412 0.79563
 H1231 H 0.56588 0.71376 0.82826
 H1232 H 0.63746 0.80700 0.74792
 C1233 C 0.58155 0.27655 0.66885
 C1234 C 0.59715 0.25408 0.70140
 C1235 C 0.63964 0.26451 0.71676
 C1236 C 0.65952 0.24399 0.74819
 H1237 H 0.57992 0.22836 0.71530
 H1238 H 0.65620 0.28900 0.69972
 H1239 H 0.60025 0.30225 0.65675
 H1240 H 0.64386 0.21910 0.76536
 C1241 C 0.08705 0.71397 0.16998
 C1242 C 0.10898 0.73732 0.19731
 C1243 C 0.15087 0.72597 0.21165
 C1244 C 0.17129 0.74738 0.24181
 H1245 H 0.09726 0.76677 0.20650
 H1246 H 0.16650 0.70310 0.19365
 H1247 H 0.09724 0.68347 0.16260
 H1248 H 0.15514 0.77061 0.25901
   
