data_POSCAR
  _audit_creation_date              2014-09-24
  _audit_creation_method            'ToBaCCo'
  _symmetry_space_group_name_H-M    'P1'
  _symmetry_Int_Tables_number       1
  _symmetry_cell_setting            triclinic
  loop_
  _symmetry_equiv_pos_as_xyz
 x,y,z
_cell_length_a 42.2224
_cell_length_b 42.2497
_cell_length_c 47.1983
_cell_angle_alpha 89.978600
_cell_angle_beta 90.085200
_cell_angle_gamma 89.964600
loop_
  _atom_site_label
  _atom_site_type_symbol
  _atom_site_fract_x
  _atom_site_fract_y
  _atom_site_fract_z
C1 C 0.41801 -0.04196 0.25430
 C2 C 0.43360 -0.01548 0.24295
 C3 C 0.44908 -0.01768 0.21700
 C4 C 0.44864 -0.04580 0.20159
 C5 C 0.43303 -0.07247 0.21285
 C6 C 0.41724 -0.07067 0.23926
 C7 C 0.43423 0.01479 0.25813
 C8 C 0.44929 0.01640 0.28434
 C9 C 0.45145 0.04508 0.29895
 C10 C 0.43770 0.07253 0.28697
 C11 C 0.42166 0.07099 0.26066
 C12 C 0.42065 0.04203 0.24617
 H13 H 0.40600 -0.03976 0.27445
 H14 H 0.46101 0.00294 0.20845
 H15 H 0.45930 -0.00497 0.29347
 H16 H 0.40862 0.04031 0.22596
 H17 H 0.43217 -0.09420 0.20072
 H18 H 0.43797 0.09461 0.29860
 C19 C 0.07992 -0.04244 0.74485
 C20 C 0.06606 -0.01512 0.75642
 C21 C 0.05116 -0.01651 0.78273
 C22 C 0.04943 -0.04493 0.79767
 C23 C 0.06333 -0.07240 0.78612
 C24 C 0.07925 -0.07117 0.75981
 C25 C 0.06628 0.01505 0.74097
 C26 C 0.05145 0.01678 0.71460
 C27 C 0.04971 0.04547 0.69990
 C28 C 0.06374 0.07272 0.71186
 C29 C 0.07965 0.07104 0.73820
 C30 C 0.08020 0.04215 0.75285
 H31 H 0.09189 -0.04098 0.72462
 H32 H 0.04091 0.00479 0.79170
 H33 H 0.04114 -0.00443 0.70551
 H34 H 0.09207 0.04040 0.77313
 H35 H 0.06324 -0.09423 0.79814
 H36 H 0.06380 0.09479 0.70019
 C37 C 0.58175 0.45688 0.24603
 C38 C 0.56798 0.48416 0.25777
 C39 C 0.55286 0.48259 0.28394
 C40 C 0.55083 0.45404 0.29862
 C41 C 0.56466 0.42660 0.28696
 C42 C 0.58079 0.42800 0.26075
 C43 C 0.56792 0.51436 0.24240
 C44 C 0.55258 0.51605 0.21628
 C45 C 0.55013 0.54476 0.20187
 C46 C 0.56380 0.57218 0.21370
 C47 C 0.58024 0.57062 0.23978
 C48 C 0.58162 0.54162 0.25425
 H49 H 0.59378 0.45846 0.22585
 H50 H 0.54257 0.50384 0.29297
 H51 H 0.54236 0.49482 0.20715
 H52 H 0.59385 0.53994 0.27437
 H53 H 0.56433 0.40465 0.29881
 H54 H 0.56311 0.59426 0.20207
 C55 C 0.91992 0.45845 0.75518
 C56 C 0.93365 0.48565 0.74327
 C57 C 0.94849 0.48397 0.71698
 C58 C 0.95033 0.45535 0.70238
 C59 C 0.93665 0.42798 0.71428
 C60 C 0.92074 0.42952 0.74058
 C61 C 0.93387 0.51588 0.75857
 C62 C 0.94891 0.51742 0.78482
 C63 C 0.95119 0.54606 0.79944
 C64 C 0.93763 0.57357 0.78750
 C65 C 0.92158 0.57214 0.76123
 C66 C 0.92040 0.54322 0.74666
 H67 H 0.90802 0.46014 0.77543
 H68 H 0.95871 0.50516 0.70778
 H69 H 0.95890 0.49603 0.79393
 H70 H 0.90836 0.54164 0.72644
 H71 H 0.93689 0.40598 0.70252
 H72 H 0.93801 0.59563 0.79915
 C73 C 0.26391 0.33572 1.03406
 C74 C 0.26295 0.35552 1.01000
 C75 C 0.28822 0.37659 1.00502
 C76 C 0.31403 0.37831 1.02393
 C77 C 0.31447 0.35844 1.04778
 C78 C 0.28982 0.33675 1.05301
 C79 C 0.23494 0.35541 0.99069
 C80 C 0.20940 0.37621 0.99564
 C81 C 0.18362 0.37773 0.97665
 C82 C 0.18355 0.35799 0.95272
 C83 C 0.20854 0.33673 0.94752
 C84 C 0.23433 0.33579 0.96651
 H85 H 0.24420 0.31998 1.03827
 H86 H 0.28730 0.39211 0.98679
 H87 H 0.21010 0.39175 1.01387
 H88 H 0.25419 0.32028 0.96220
 H89 H 0.33392 0.36061 1.06262
 H90 H 0.16421 0.35989 0.93775
 C91 C 0.73501 0.16367 1.03540
 C92 C 0.73582 0.14419 1.01117
 C93 C 0.71051 0.12325 1.00596
 C94 C 0.68473 0.12144 1.02479
 C95 C 0.68437 0.14103 1.04880
 C96 C 0.70914 0.16251 1.05428
 C97 C 0.76379 0.14443 0.99197
 C98 C 0.78910 0.12330 0.99671
 C99 C 0.81481 0.12188 0.97774
 C100 C 0.81511 0.14210 0.95416
 C101 C 0.79037 0.16371 0.94924
 C102 C 0.76457 0.16453 0.96813
 H103 H 0.75482 0.17923 1.03980
 H104 H 0.71138 0.10790 0.98762
 H105 H 0.78827 0.10749 1.01474
 H106 H 0.74484 0.18028 0.96399
 H107 H 0.66492 0.13878 1.06358
 H108 H 0.83445 0.14031 0.93921
 C109 C 0.23536 0.66362 0.53332
 C110 C 0.23612 0.64390 0.50923
 C111 C 0.21074 0.62293 0.50424
 C112 C 0.18501 0.62129 0.52319
 C113 C 0.18477 0.64112 0.54703
 C114 C 0.20956 0.66257 0.55222
 C115 C 0.26404 0.64409 0.48992
 C116 C 0.28962 0.62333 0.49484
 C117 C 0.31539 0.62201 0.47591
 C118 C 0.31541 0.64192 0.45208
 C119 C 0.29042 0.66324 0.44700
 C120 C 0.26462 0.66395 0.46591
 H121 H 0.25507 0.67931 0.53763
 H122 H 0.21149 0.60746 0.48597
 H123 H 0.28899 0.60772 0.51303
 H124 H 0.24476 0.67951 0.46168
 H125 H 0.16543 0.63916 0.56195
 H126 H 0.33473 0.64019 0.43712
 C127 C 0.76700 0.83720 0.53376
 C128 C 0.76605 0.85673 0.50957
 C129 C 0.79119 0.87790 0.50448
 C130 C 0.81705 0.87990 0.52339
 C131 C 0.81748 0.86013 0.54737
 C132 C 0.79281 0.83856 0.55268
 C133 C 0.73801 0.85645 0.49036
 C134 C 0.71261 0.87741 0.49524
 C135 C 0.68680 0.87885 0.47633
 C136 C 0.68648 0.85882 0.45262
 C137 C 0.71131 0.83736 0.44753
 C138 C 0.73721 0.83652 0.46640
 H139 H 0.74738 0.82143 0.53817
 H140 H 0.79002 0.89325 0.48614
 H141 H 0.71346 0.89307 0.51337
 H142 H 0.75698 0.82088 0.46216
 H143 H 0.83682 0.86223 0.56233
 H144 H 0.66705 0.86062 0.43772
 C145 C -0.04120 0.24585 0.31766
 C146 C -0.01191 0.23837 0.32990
 C147 C -0.00976 0.21405 0.34983
 C148 C -0.03690 0.19825 0.35880
 C149 C -0.06589 0.20500 0.34617
 C150 C -0.06822 0.22885 0.32574
 C151 C 0.01353 0.26156 0.33056
 C152 C 0.01062 0.28539 0.35087
 C153 C 0.03733 0.30128 0.36051
 C154 C 0.06660 0.29548 0.34829
 C155 C 0.06975 0.27219 0.32751
 C156 C 0.04322 0.25476 0.31884
 H157 H -0.04311 0.26603 0.30360
 H158 H 0.01257 0.20985 0.36065
 H159 H -0.01191 0.28916 0.36140
 H160 H 0.04597 0.23496 0.30446
 H161 H -0.08712 0.19298 0.35323
 H162 H 0.08708 0.30779 0.35628
 C163 C -0.04490 0.75258 0.17998
 C164 C -0.01559 0.76013 0.16798
 C165 C -0.01355 0.78380 0.14744
 C166 C -0.04078 0.79880 0.13774
 C167 C -0.06984 0.79202 0.14995
 C168 C -0.07206 0.76889 0.17104
 C169 C 0.01037 0.73757 0.16850
 C170 C 0.00886 0.71347 0.14834
 C171 C 0.03641 0.69850 0.13921
 C172 C 0.06519 0.70576 0.15192
 C173 C 0.06674 0.72927 0.17263
 C174 C 0.03940 0.74554 0.18089
 H175 H -0.04663 0.73299 0.19470
 H176 H 0.00883 0.78819 0.13687
 H177 H -0.01337 0.70885 0.13749
 H178 H 0.04094 0.76549 0.19521
 H179 H -0.09103 0.80368 0.14225
 H180 H 0.08678 0.69441 0.14486
 C181 C 0.45924 0.25269 0.68121
 C182 C 0.48827 0.26051 0.66882
 C183 C 0.48980 0.28444 0.64848
 C184 C 0.46232 0.29950 0.63941
 C185 C 0.43358 0.29249 0.65209
 C186 C 0.43195 0.26905 0.67286
 C187 C 0.51430 0.23806 0.66869
 C188 C 0.51273 0.21449 0.64804
 C189 C 0.54024 0.19985 0.63859
 C190 C 0.56907 0.20683 0.65120
 C191 C 0.57070 0.22980 0.67239
 C192 C 0.54338 0.24578 0.68112
 H193 H 0.45767 0.23287 0.69570
 H194 H 0.51193 0.28900 0.63754
 H195 H 0.49053 0.21000 0.63714
 H196 H 0.54492 0.26531 0.69590
 H197 H 0.41212 0.30405 0.64491
 H198 H 0.59054 0.19555 0.64375
 C199 C 0.45812 0.74524 0.81916
 C200 C 0.48717 0.73746 0.83162
 C201 C 0.48870 0.71379 0.85222
 C202 C 0.46117 0.69893 0.86154
 C203 C 0.43238 0.70601 0.84872
 C204 C 0.43080 0.72918 0.82769
 C205 C 0.51320 0.75990 0.83150
 C206 C 0.51158 0.78395 0.85171
 C207 C 0.53899 0.79925 0.86057
 C208 C 0.56773 0.79234 0.84783
 C209 C 0.56945 0.76879 0.82716
 C210 C 0.54224 0.75219 0.81902
 H211 H 0.45658 0.76490 0.80449
 H212 H 0.51094 0.70933 0.86310
 H213 H 0.48946 0.78845 0.86268
 H214 H 0.54388 0.73232 0.80462
 H215 H 0.41081 0.69472 0.85587
 H216 H 0.58913 0.80410 0.85487
 C217 C -0.29417 0.66868 0.99507
 C218 C -0.26707 0.68277 1.00689
 C219 C -0.26890 0.69805 1.03298
 C220 C -0.29758 0.70003 1.04747
 C221 C -0.32486 0.68596 1.03570
 C222 C -0.32320 0.66946 1.00962
 C223 C -0.23675 0.68283 0.99170
 C224 C -0.23494 0.69805 0.96556
 C225 C -0.20613 0.70035 0.95117
 C226 C -0.17877 0.68654 0.96323
 C227 C -0.18050 0.67022 0.98934
 C228 C -0.20956 0.66906 1.00369
 H229 H -0.29221 0.65655 0.97494
 H230 H -0.24776 0.70852 1.04210
 H231 H -0.25621 0.70823 0.95638
 H232 H -0.21137 0.65689 1.02381
 H233 H -0.34687 0.68638 1.04745
 H234 H -0.15657 0.68697 0.95179
 C235 C -0.29332 0.33046 0.50522
 C236 C -0.26616 0.31646 0.49351
 C237 C -0.26786 0.30115 0.46746
 C238 C -0.29642 0.29923 0.45275
 C239 C -0.32380 0.31336 0.46433
 C240 C -0.32231 0.32975 0.49051
 C241 C -0.23579 0.31676 0.50864
 C242 C -0.23360 0.30158 0.53477
 C243 C -0.20470 0.29971 0.54901
 C244 C -0.17762 0.31382 0.53698
 C245 C -0.17972 0.33005 0.51086
 C246 C -0.20886 0.33082 0.49656
 H247 H -0.29141 0.34253 0.52538
 H248 H -0.24665 0.29071 0.45848
 H249 H -0.25459 0.29108 0.54408
 H250 H -0.21094 0.34292 0.47642
 H251 H -0.34573 0.31303 0.45239
 H252 H -0.15543 0.31364 0.54851
 C253 C 0.20760 -0.16993 0.00346
 C254 C 0.23485 -0.18370 -0.00830
 C255 C 0.23324 -0.19876 -0.03451
 C256 C 0.20457 -0.20083 -0.04923
 C257 C 0.17715 -0.18694 -0.03742
 C258 C 0.17867 -0.17085 -0.01119
 C259 C 0.26502 -0.18381 0.00721
 C260 C 0.26638 -0.19868 0.03353
 C261 C 0.29486 -0.20060 0.04852
 C262 C 0.32241 -0.18691 0.03683
 C263 C 0.32118 -0.17104 0.01046
 C264 C 0.29239 -0.17018 -0.00445
 H265 H 0.20926 -0.15792 0.02367
 H266 H 0.25456 -0.20901 -0.04348
 H267 H 0.24496 -0.20877 0.04243
 H268 H 0.29094 -0.15827 -0.02472
 H269 H 0.15508 -0.18716 -0.04912
 H270 H 0.34436 -0.18706 0.04872
 C271 C 0.20852 1.16933 0.49452
 C272 C 0.23575 1.18311 0.50638
 C273 C 0.23410 1.19808 0.53262
 C274 C 0.20547 1.20005 0.54720
 C275 C 0.17806 1.18631 0.53534
 C276 C 0.17960 1.17024 0.50911
 C277 C 0.26595 1.18313 0.49104
 C278 C 0.26744 1.19788 0.46468
 C279 C 0.29601 1.19973 0.44990
 C280 C 0.32349 1.18599 0.46182
 C281 C 0.32209 1.17024 0.48824
 C282 C 0.29324 1.16952 0.50294
 H283 H 0.21019 1.15731 0.47432
 H284 H 0.25533 1.20830 0.54180
 H285 H 0.24607 1.20797 0.45561
 H286 H 0.29166 1.15774 0.52326
 H287 H 0.15605 1.18663 0.54707
 H288 H 0.34550 1.18605 0.45007
 C289 C 0.08613 0.51437 0.21682
 C290 C 0.10631 0.51350 0.24062
 C291 C 0.12737 0.53885 0.24540
 C292 C 0.12856 0.56471 0.22655
 C293 C 0.10823 0.56507 0.20299
 C294 C 0.08676 0.54024 0.19799
 C295 C 0.10631 0.48558 0.25993
 C296 C 0.12709 0.46004 0.25499
 C297 C 0.12832 0.43415 0.27382
 C298 C 0.10834 0.43400 0.29757
 C299 C 0.08706 0.45899 0.30269
 C300 C 0.08641 0.48488 0.28387
 H301 H 0.07037 0.49467 0.21268
 H302 H 0.14320 0.53800 0.26345
 H303 H 0.14273 0.46076 0.23684
 H304 H 0.07084 0.50471 0.28810
 H305 H 0.10983 0.58453 0.18814
 H306 H 0.10999 0.41457 0.31245
 C307 C -0.08705 0.98372 0.21489
 C308 C -0.10696 0.98482 0.23884
 C309 C -0.12830 0.95976 0.24372
 C310 C -0.13016 0.93389 0.22488
 C311 C -0.11016 0.93339 0.20108
 C312 C -0.08826 0.95789 0.19592
 C313 C -0.10665 1.01275 0.25819
 C314 C -0.12794 1.03803 0.25372
 C315 C -0.12936 1.06370 0.27285
 C316 C -0.10902 1.06373 0.29645
 C317 C -0.08725 1.03905 0.30110
 C318 C -0.08640 1.01346 0.28196
 H319 H -0.07112 1.00328 0.21075
 H320 H -0.14384 0.96097 0.26191
 H321 H -0.14378 1.03714 0.23569
 H322 H -0.07052 0.99378 0.28591
 H323 H -0.11235 0.91403 0.18617
 H324 H -0.11071 1.08286 0.31165
 C325 C 0.41336 0.48594 -0.28468
 C326 C 0.39347 0.48678 -0.26068
 C327 C 0.37264 0.46133 -0.25566
 C328 C 0.37124 0.43545 -0.27444
 C329 C 0.39119 0.43511 -0.29821
 C330 C 0.41264 0.45996 -0.30350
 C331 C 0.39338 0.51473 -0.24138
 C332 C 0.37222 0.54003 -0.24622
 C333 C 0.37043 0.56571 -0.22712
 C334 C 0.39037 0.56580 -0.20324
 C335 C 0.41196 0.54106 -0.19820
 C336 C 0.41311 0.51542 -0.21727
 H337 H 0.42892 0.50577 -0.28891
 H338 H 0.35708 0.46216 -0.23747
 H339 H 0.35672 0.53913 -0.26449
 H340 H 0.42886 0.49572 -0.21304
 H341 H 0.38928 0.41557 -0.31294
 H342 H 0.38841 0.58497 -0.18812
 C343 C 0.58651 0.01542 -0.28458
 C344 C 0.60592 0.01452 -0.26024
 C345 C 0.62703 0.03969 -0.25504
 C346 C 0.62914 0.06540 -0.27397
 C347 C 0.60957 0.06587 -0.29805
 C348 C 0.58789 0.04125 -0.30356
 C349 C 0.60565 -0.01348 -0.24100
 C350 C 0.62667 -0.03886 -0.24582
 C351 C 0.62829 -0.06452 -0.22679
 C352 C 0.60835 -0.06474 -0.20303
 C353 C 0.58684 -0.03996 -0.19797
 C354 C 0.58586 -0.01418 -0.21694
 H355 H 0.57083 -0.00427 -0.28900
 H356 H 0.64229 0.03874 -0.23662
 H357 H 0.64227 -0.03808 -0.26398
 H358 H 0.57021 0.00559 -0.21270
 H359 H 0.61201 0.08528 -0.31287
 H360 H 0.61032 -0.08406 -0.18805
 C361 C -0.00193 0.20939 0.93361
 C362 C -0.00919 0.23853 0.92107
 C363 C -0.03343 0.24055 0.90098
 C364 C -0.04928 0.21340 0.89225
 C365 C -0.04278 0.18459 0.90510
 C366 C -0.01905 0.18247 0.92562
 C367 C 0.01408 0.26382 0.92040
 C368 C 0.03713 0.26144 0.89935
 C369 C 0.05236 0.28843 0.88953
 C370 C 0.04673 0.31745 0.90228
 C371 C 0.02470 0.31986 0.92421
 C372 C 0.00771 0.29314 0.93294
 H373 H 0.01816 0.20738 0.94778
 H374 H -0.03753 0.26267 0.88986
 H375 H 0.04064 0.23912 0.88840
 H376 H -0.01162 0.29550 0.94787
 H377 H -0.05486 0.16337 0.89812
 H378 H 0.05807 0.33841 0.89400
 C379 C 0.50415 0.20743 0.06920
 C380 C 0.51225 0.23648 0.08144
 C381 C 0.53606 0.23791 0.10194
 C382 C 0.55057 0.21031 0.11143
 C383 C 0.54320 0.18151 0.09897
 C384 C 0.51997 0.17999 0.07794
 C385 C 0.48988 0.26260 0.08144
 C386 C 0.46586 0.26092 0.10166
 C387 C 0.45064 0.28829 0.11067
 C388 C 0.45758 0.31709 0.09805
 C389 C 0.48110 0.31888 0.07737
 C390 C 0.49765 0.29170 0.06912
 H391 H 0.48443 0.20600 0.05456
 H392 H 0.54084 0.26009 0.11272
 H393 H 0.46131 0.23874 0.11253
 H394 H 0.51753 0.29339 0.05472
 H395 H 0.55436 0.15998 0.10646
 H396 H 0.44584 0.33845 0.10517
 C397 C 0.00193 0.70925 0.56937
 C398 C 0.00989 0.73819 0.58189
 C399 C 0.03415 0.73963 0.60195
 C400 C 0.04931 0.71213 0.61074
 C401 C 0.04218 0.68347 0.59796
 C402 C 0.01850 0.68195 0.57735
 C403 C -0.01245 0.76432 0.58235
 C404 C -0.03572 0.76291 0.60329
 C405 C -0.05003 0.79054 0.61309
 C406 C -0.04287 0.81934 0.60041
 C407 C -0.02021 0.82077 0.57896
 C408 C -0.00465 0.79334 0.56996
 H409 H -0.01810 0.70774 0.55508
 H410 H 0.03886 0.76169 0.61295
 H411 H -0.04023 0.74064 0.61404
 H412 H 0.01468 0.79474 0.55496
 H413 H 0.05387 0.66201 0.60493
 H414 H -0.05380 0.84097 0.60787
 C415 C 0.49449 0.70646 0.43074
 C416 C 0.48776 0.73622 0.41913
 C417 C 0.46385 0.73937 0.39888
 C418 C 0.44777 0.71282 0.38919
 C419 C 0.45350 0.68346 0.40131
 C420 C 0.47692 0.68008 0.42200
 C421 C 0.51103 0.76155 0.41992
 C422 C 0.53516 0.75973 0.39978
 C423 C 0.55086 0.78699 0.39112
 C424 C 0.54436 0.81571 0.40409
 C425 C 0.52069 0.81767 0.42461
 C426 C 0.50372 0.79064 0.43254
 H427 H 0.51433 0.70355 0.44511
 H428 H 0.46015 0.76197 0.38844
 H429 H 0.53925 0.73769 0.38856
 H430 H 0.48365 0.79253 0.44671
 H431 H 0.44102 0.66310 0.39330
 H432 H 0.55635 0.83700 0.39716
 Zr433 Zr 0.01554 -0.05773 1.04015
 O434 O 0.05109 -0.04579 1.06988
 O435 O 0.00124 -0.10154 1.05468
 O436 O -0.00497 -0.05274 1.08139
 O437 O 0.06674 -0.08311 0.98750
 O438 O -0.04662 -0.01901 1.07425
 O439 O 0.05621 -0.08777 1.03475
 O440 O -0.04154 -0.11401 1.02710
 O441 O -0.03368 -0.05601 1.03394
 O442 O 0.00580 -0.08145 1.00220
 O443 O 0.00315 -0.00948 1.03949
 O444 O 0.04220 -0.03406 1.00893
 Zr445 Zr -0.03052 -0.00720 0.96163
 Zr446 Zr -0.04566 -0.00816 1.03094
 Zr447 Zr 0.02980 -0.05648 0.97085
 Zr448 Zr -0.04277 -0.07851 0.99554
 O449 O 0.07381 -0.03956 0.95564
 O450 O -0.08900 -0.08314 1.01255
 O451 O -0.01887 -0.05576 0.96219
 O452 O -0.05690 -0.03104 0.99287
 O453 O -0.02125 0.01661 0.99969
 O454 O 0.01845 -0.00866 0.96805
 C455 C -0.02270 -0.11856 1.04814
 C456 C 0.07267 -0.09403 1.01221
 C457 C -0.02950 -0.03695 1.09002
 O458 O -0.09183 -0.02289 1.04234
 O459 O -0.07920 0.02375 1.01411
 O460 O -0.06910 0.02458 0.96659
 C461 C -0.08457 0.03358 0.98875
 O462 O 0.06466 0.01365 1.03710
 Zr463 Zr 0.02745 0.01329 1.00673
 O464 O -0.01690 0.03804 0.94859
 O465 O -0.04286 0.03464 1.05407
 O466 O 0.02015 0.05281 1.03367
 O467 O 0.07076 0.02273 0.98566
 O468 O 0.01952 0.05348 0.98170
 C469 C 0.00119 0.05853 0.96051
 O470 O -0.06767 -0.01736 0.93287
 O471 O 0.02945 -0.10141 0.95097
 O472 O -0.01352 -0.01629 0.91988
 O473 O 0.02653 -0.05164 0.92706
 O474 O -0.03359 -0.12171 0.97419
 O475 O -0.07450 -0.08340 0.96083
 C476 C 0.00876 -0.03484 0.91103
 H477 H 0.01255 -0.10389 1.00256
 H478 H -0.07986 -0.02988 0.98868
 H479 H 0.03030 0.00178 0.95256
 H480 H 0.00824 0.00066 1.05785
 H481 H -0.09517 -0.10569 1.01088
 H482 H -0.10043 -0.00661 1.05536
 H483 H -0.06332 0.03711 1.06410
 H484 H 0.03591 0.06919 1.02850
 H485 H -0.04972 -0.13717 0.98058
 H486 H 0.04982 -0.10365 0.94073
 H487 H 0.08256 -0.05608 0.94295
 H488 H 0.07586 0.04535 0.98885
 H489 H -0.08746 -0.10270 0.96343
 H490 H -0.06895 0.00067 0.91943
 H491 H 0.05295 -0.06404 1.08299
 H492 H 0.07563 0.03435 1.03651
 Zr493 Zr 0.51631 0.44299 0.54089
 O494 O 0.55194 0.45517 0.57046
 O495 O 0.50198 0.39940 0.55591
 O496 O 0.49588 0.44866 0.58211
 O497 O 0.56712 0.41646 0.48827
 O498 O 0.45428 0.48239 0.57467
 O499 O 0.55695 0.41275 0.53565
 O500 O 0.45906 0.38661 0.52860
 O501 O 0.46706 0.44484 0.53480
 O502 O 0.50632 0.41874 0.50328
 O503 O 0.50405 0.49128 0.53972
 O504 O 0.54296 0.46606 0.50932
 Zr505 Zr 0.47013 0.49251 0.46197
 Zr506 Zr 0.45520 0.49272 0.53126
 Zr507 Zr 0.53028 0.44314 0.47157
 Zr508 Zr 0.45773 0.42177 0.49674
 O509 O 0.57436 0.45965 0.45614
 O510 O 0.41162 0.41744 0.51406
 O511 O 0.48158 0.44392 0.46305
 O512 O 0.44376 0.46925 0.49355
 O513 O 0.47965 0.51690 0.49968
 O514 O 0.51912 0.49096 0.46827
 C515 C 0.47804 0.38229 0.54960
 C516 C 0.57322 0.40598 0.51309
 C517 C 0.47140 0.46461 0.59060
 O518 O 0.40897 0.47851 0.54298
 O519 O 0.42167 0.52451 0.51407
 O520 O 0.43151 0.52432 0.46651
 C521 C 0.41612 0.53380 0.48856
 O522 O 0.56559 0.51373 0.53703
 Zr523 Zr 0.52839 0.51344 0.50666
 O524 O 0.48390 0.53757 0.44863
 O525 O 0.45838 0.53587 0.55383
 O526 O 0.52137 0.55341 0.53311
 O527 O 0.57175 0.52239 0.48549
 O528 O 0.52094 0.55332 0.48110
 C529 C 0.50238 0.55808 0.46002
 O530 O 0.43297 0.48199 0.43332
 O531 O 0.52952 0.39798 0.45210
 O532 O 0.48708 0.48297 0.42029
 O533 O 0.52690 0.44745 0.42776
 O534 O 0.46661 0.37827 0.47578
 O535 O 0.42582 0.41666 0.46219
 C536 C 0.50925 0.46421 0.41161
 H537 H 0.51299 0.39628 0.50385
 H538 H 0.42079 0.47042 0.48941
 H539 H 0.53099 0.50113 0.45265
 H540 H 0.50923 0.50166 0.55795
 H541 H 0.40534 0.39491 0.51252
 H542 H 0.40059 0.49498 0.55592
 H543 H 0.43800 0.53858 0.56393
 H544 H 0.53737 0.56951 0.52783
 H545 H 0.45036 0.36301 0.48229
 H546 H 0.54977 0.39553 0.44171
 H547 H 0.58289 0.44305 0.44342
 H548 H 0.57716 0.54493 0.48873
 H549 H 0.41272 0.39749 0.46505
 H550 H 0.43167 0.49983 0.41968
 H551 H 0.55374 0.43708 0.58375
 H552 H 0.57667 0.53436 0.53638
 Zr553 Zr 0.48530 1.05710 0.53991
 O554 O 0.44980 1.04490 0.56952
 O555 O 0.49950 1.10084 0.55469
 O556 O 0.50580 1.05185 0.58117
 O557 O 0.43397 1.08263 0.48727
 O558 O 0.54754 1.01827 0.57403
 O559 O 0.44454 1.08707 0.53456
 O560 O 0.54222 1.11370 0.52728
 O561 O 0.53454 1.05559 0.53383
 O562 O 0.49496 1.08114 0.50213
 O563 O 0.49786 1.00889 0.53904
 O564 O 0.45871 1.03357 0.50851
 Zr565 Zr 0.53152 1.00732 0.46125
 Zr566 Zr 0.54668 1.00778 0.53063
 Zr567 Zr 0.47104 1.05632 0.47060
 Zr568 Zr 0.54354 1.07840 0.49558
 O569 O 0.42711 1.03930 0.45518
 O570 O 0.58976 1.08311 0.51272
 O571 O 0.51971 1.05584 0.46206
 O572 O 0.55782 1.03100 0.49270
 O573 O 0.52234 0.98321 0.49917
 O574 O 0.48255 1.00856 0.46754
 C575 C 0.52336 1.11801 0.54830
 C576 C 0.42804 1.09341 0.51201
 C577 C 0.53033 1.03605 0.58983
 O578 O 0.59279 1.02253 0.54228
 O579 O 0.58034 0.97612 0.51365
 O580 O 0.57022 0.97566 0.46610
 C581 C 0.58574 0.96652 0.48823
 O582 O 0.43642 0.98570 0.53636
 Zr583 Zr 0.47363 0.98630 0.50610
 O584 O 0.51811 0.96209 0.44798
 O585 O 0.54397 0.96475 0.55344
 O586 O 0.48093 0.94662 0.53289
 O587 O 0.43040 0.97680 0.48480
 O588 O 0.48178 0.94628 0.48095
 C589 C 0.50013 0.94144 0.45978
 O590 O 0.56863 1.01791 0.43266
 O591 O 0.47119 1.10143 0.45100
 O592 O 0.51444 1.01672 0.41950
 O593 O 0.47436 1.05196 0.42681
 O594 O 0.53416 1.12169 0.47439
 O595 O 0.57528 1.08361 0.46099
 C596 C 0.49213 1.03533 0.41071
 H597 H 0.48813 1.10355 0.50259
 H598 H 0.58078 1.02995 0.48857
 H599 H 0.47074 0.99819 0.45197
 H600 H 0.49280 0.99860 0.55733
 H601 H 0.59586 1.10569 0.51113
 H602 H 0.60139 1.00619 0.55527
 H603 H 0.56441 0.96227 0.56355
 H604 H 0.46515 0.93028 0.52760
 H605 H 0.55020 1.13719 0.48089
 H606 H 0.45083 1.10366 0.44070
 H607 H 0.41836 1.05580 0.44243
 H608 H 0.42540 0.95415 0.48789
 H609 H 0.58808 1.10302 0.46366
 H610 H 0.56998 1.00002 0.41910
 H611 H 0.44799 1.06302 0.58276
 H612 H 0.42537 0.96506 0.53555
 Zr613 Zr -0.01736 0.55685 1.04063
 O614 O -0.05313 0.54430 1.06985
 O615 O -0.00331 0.60041 1.05595
 O616 O 0.00275 0.55119 1.08196
 O617 O -0.06797 0.58333 0.98782
 O618 O 0.04440 0.51747 1.07486
 O619 O -0.05807 0.58686 1.03528
 O620 O 0.03981 0.61347 1.02912
 O621 O 0.03194 0.55519 1.03500
 O622 O -0.00716 0.58138 1.00322
 O623 O -0.00497 0.50861 1.03940
 O624 O -0.04369 0.53388 1.00873
 Zr625 Zr 0.02963 0.50799 0.96199
 Zr626 Zr 0.04395 0.50737 1.03142
 Zr627 Zr -0.03080 0.55709 0.97120
 Zr628 Zr 0.04150 0.57853 0.99713
 O629 O -0.07463 0.54049 0.95518
 O630 O 0.08747 0.58282 1.01488
 O631 O 0.01797 0.55653 0.96313
 O632 O 0.05567 0.53111 0.99390
 O633 O 0.01985 0.48336 0.99950
 O634 O -0.01942 0.50933 0.96780
 C635 C 0.02066 0.61761 1.04996
 C636 C -0.07428 0.59360 1.01266
 C637 C 0.02716 0.53524 1.09063
 O638 O 0.09007 0.52157 1.04360
 O639 O 0.07756 0.47559 1.01444
 O640 O 0.06811 0.47605 0.96678
 C641 C 0.08327 0.46639 0.98895
 O642 O -0.06663 0.48604 1.03579
 Zr643 Zr -0.02894 0.48658 1.00600
 O644 O 0.01613 0.46309 0.94811
 O645 O 0.04064 0.46414 1.05385
 O646 O -0.02243 0.44657 1.03255
 O647 O -0.07183 0.47740 0.98404
 O648 O -0.02047 0.44679 0.98066
 C649 C -0.00198 0.44231 0.95953
 O650 O 0.06709 0.51891 0.93387
 O651 O -0.03024 0.60242 0.95202
 O652 O 0.01305 0.51774 0.92020
 O653 O -0.02697 0.55308 0.92740
 O654 O 0.03273 0.62217 0.97632
 O655 O 0.07360 0.58397 0.96284
 C656 C -0.00911 0.53646 0.91136
 H657 H -0.01393 0.60380 1.00384
 H658 H 0.07868 0.52999 0.98998
 H659 H -0.03109 0.49920 0.95201
 H660 H -0.01030 0.49813 1.05754
 H661 H 0.09368 0.60539 1.01356
 H662 H 0.09838 0.50500 1.05651
 H663 H 0.06094 0.46139 1.06412
 H664 H -0.03828 0.43045 1.02693
 H665 H 0.04897 0.63737 0.98299
 H666 H -0.05045 0.60481 0.94152
 H667 H -0.08317 0.55721 0.94256
 H668 H -0.07701 0.45477 0.98699
 H669 H 0.08679 0.60302 0.96599
 H670 H 0.06863 0.50118 0.92015
 H671 H -0.05510 0.56228 1.08324
 H672 H -0.07786 0.46551 1.03468
 Zr673 Zr -0.01750 0.44400 0.45974
 O674 O -0.05307 0.45682 0.43031
 O675 O -0.00411 0.40007 0.44487
 O676 O 0.00286 0.44903 0.41850
 O677 O -0.06853 0.41840 0.51236
 O678 O 0.04481 0.48234 0.42565
 O679 O -0.05833 0.41428 0.46501
 O680 O 0.03885 0.38683 0.47198
 O681 O 0.03179 0.44511 0.46565
 O682 O -0.00771 0.41972 0.49740
 O683 O -0.00463 0.49210 0.46072
 O684 O -0.04378 0.46752 0.49130
 Zr685 Zr 0.02960 0.49304 0.53837
 Zr686 Zr 0.04424 0.49283 0.46901
 Zr687 Zr -0.03129 0.44452 0.52908
 Zr688 Zr 0.04092 0.42204 0.50376
 O689 O -0.07505 0.46180 0.54456
 O690 O 0.08690 0.41707 0.48628
 O691 O 0.01746 0.44462 0.53744
 O692 O 0.05554 0.46933 0.50678
 O693 O 0.02025 0.51744 0.50060
 O694 O -0.01944 0.49216 0.53223
 C695 C 0.01966 0.38267 0.45111
 C696 C -0.07465 0.40782 0.48756
 C697 C 0.02747 0.46465 0.40988
 O698 O 0.09027 0.47799 0.45724
 O699 O 0.07812 0.52431 0.48592
 O700 O 0.06835 0.52462 0.53350
 C701 C 0.08374 0.53380 0.51135
 O702 O -0.06581 0.51552 0.46351
 Zr703 Zr -0.02854 0.51467 0.49381
 O704 O 0.01634 0.53815 0.55201
 O705 O 0.04152 0.53589 0.44623
 O706 O -0.02127 0.55457 0.46732
 O707 O -0.07163 0.52436 0.51516
 O708 O -0.02019 0.55438 0.51926
 C709 C -0.00176 0.55892 0.54047
 O710 O 0.06692 0.48203 0.56671
 O711 O -0.03128 0.39938 0.54863
 O712 O 0.01284 0.48360 0.58012
 O713 O -0.02764 0.44882 0.57288
 O714 O 0.03168 0.37868 0.52483
 O715 O 0.07289 0.41648 0.53823
 C716 C -0.00957 0.46522 0.58894
 H717 H -0.01467 0.39735 0.49694
 H718 H 0.07854 0.47022 0.51084
 H719 H -0.03111 0.50251 0.54788
 H720 H -0.00975 0.50250 0.44247
 H721 H 0.09285 0.39443 0.48773
 H722 H 0.09881 0.49431 0.44424
 H723 H 0.06188 0.53826 0.43603
 H724 H -0.03707 0.57085 0.47269
 H725 H 0.04770 0.36319 0.51825
 H726 H -0.05160 0.39729 0.55897
 H727 H -0.08380 0.44536 0.55733
 H728 H -0.07664 0.54700 0.51198
 H729 H 0.08585 0.39722 0.53528
 H730 H 0.06850 0.49981 0.58037
 H731 H -0.05522 0.43879 0.41701
 H732 H -0.07683 0.53618 0.46437
 Zr733 Zr 0.48431 -0.05769 -0.04009
 O734 O 0.44827 -0.04546 -0.06928
 O735 O 0.49883 -0.10105 -0.05554
 O736 O 0.50415 -0.05169 -0.08144
 O737 O 0.43403 -0.08452 0.01267
 O738 O 0.54548 -0.01761 -0.07431
 O739 O 0.44387 -0.08799 -0.03479
 O740 O 0.54217 -0.11372 -0.02870
 O741 O 0.53360 -0.05554 -0.03448
 O742 O 0.49494 -0.08224 -0.00274
 O743 O 0.49611 -0.00933 -0.03879
 O744 O 0.45788 -0.03511 -0.00808
 Zr745 Zr 0.53086 -0.00842 0.03863
 Zr746 Zr 0.54504 -0.00761 -0.03081
 Zr747 Zr 0.47121 -0.05833 0.02940
 Zr748 Zr 0.54358 -0.07883 0.00336
 O749 O 0.42757 -0.04216 0.04607
 O750 O 0.58952 -0.08260 -0.01443
 O751 O 0.51998 -0.05714 0.03745
 O752 O 0.55710 -0.03125 0.00670
 O753 O 0.52077 0.01616 0.00113
 O754 O 0.48185 -0.01039 0.03278
 C755 C 0.52300 -0.11804 -0.04955
 C756 C 0.42772 -0.09478 -0.01219
 C757 C 0.52835 -0.03548 -0.09012
 O758 O 0.59125 -0.02139 -0.04304
 O759 O 0.57848 0.02427 -0.01371
 O760 O 0.56908 0.02374 0.03394
 C761 C 0.58416 0.03344 0.01180
 O762 O 0.43426 0.01262 -0.03518
 Zr763 Zr 0.47201 0.01238 -0.00535
 O764 O 0.51718 0.03645 0.05246
 O765 O 0.54128 0.03566 -0.05315
 O766 O 0.47808 0.05250 -0.03183
 O767 O 0.42901 0.02107 0.01650
 O768 O 0.48000 0.05222 0.02016
 C769 C 0.49867 0.05700 0.04117
 O770 O 0.56818 -0.01947 0.06695
 O771 O 0.47192 -0.10398 0.04799
 O772 O 0.51359 -0.01726 0.08028
 O773 O 0.47607 -0.05530 0.07327
 O774 O 0.53524 -0.12251 0.02422
 O775 O 0.57614 -0.08409 0.03743
 C776 C 0.49254 -0.03712 0.08919
 H777 H 0.48840 -0.10472 -0.00345
 H778 H 0.58010 -0.02992 0.01064
 H779 H 0.47005 -0.00039 0.04853
 H780 H 0.49062 0.00114 -0.05692
 H781 H 0.59601 -0.10511 -0.01320
 H782 H 0.59936 -0.00473 -0.05592
 H783 H 0.56155 0.03861 -0.06337
 H784 H 0.46213 0.06851 -0.02616
 H785 H 0.55136 -0.13771 0.01733
 H786 H 0.45186 -0.10647 0.05866
 H787 H 0.41929 -0.05919 0.05847
 H788 H 0.42360 0.04367 0.01362
 H789 H 0.58911 -0.10332 0.03438
 H790 H 0.56971 -0.00170 0.08063
 H791 H 0.44649 -0.06340 -0.08273
 H792 H 0.42287 0.03308 -0.03412
 Zr793 Zr 0.51509 0.55699 -0.04034
 O794 O 0.55076 0.54454 -0.06972
 O795 O 0.50099 0.60065 -0.05546
 O796 O 0.49486 0.55154 -0.08162
 O797 O 0.56605 0.58309 0.01229
 O798 O 0.45311 0.51801 -0.07448
 O799 O 0.55579 0.58698 -0.03509
 O800 O 0.45804 0.61364 -0.02837
 O801 O 0.46583 0.55543 -0.03449
 O802 O 0.50516 0.58131 -0.00278
 O803 O 0.50263 0.50879 -0.03928
 O804 O 0.54161 0.53377 -0.00870
 Zr805 Zr 0.46861 0.50770 0.03835
 Zr806 Zr 0.45377 0.50762 -0.03104
 Zr807 Zr 0.52899 0.55677 0.02900
 Zr808 Zr 0.45654 0.57853 0.00355
 O809 O 0.57294 0.54003 0.04468
 O810 O 0.41044 0.58309 -0.01388
 O811 O 0.48027 0.55624 0.03733
 O812 O 0.44237 0.53111 0.00667
 O813 O 0.47806 0.48330 0.00064
 O814 O 0.51761 0.50902 0.03222
 C815 C 0.47707 0.61786 -0.04929
 C816 C 0.57214 0.59356 -0.01253
 C817 C 0.47039 0.53572 -0.09027
 O818 O 0.40763 0.52217 -0.04290
 O819 O 0.42017 0.47590 -0.01401
 O820 O 0.43008 0.47584 0.03358
 C821 C 0.41469 0.46646 0.01145
 O822 O 0.56404 0.48582 -0.03636
 Zr823 Zr 0.52680 0.48649 -0.00613
 O824 O 0.48222 0.46270 0.05205
 O825 O 0.45670 0.46454 -0.05372
 O826 O 0.51961 0.44652 -0.03256
 O827 O 0.57007 0.47719 0.01520
 O828 O 0.51891 0.44677 0.01944
 C829 C 0.50051 0.44209 0.04060
 O830 O 0.43135 0.51849 0.06673
 O831 O 0.52851 0.60197 0.04839
 O832 O 0.48557 0.51712 0.08010
 O833 O 0.52553 0.55246 0.07280
 O834 O 0.46556 0.62201 0.02451
 O835 O 0.42461 0.58382 0.03799
 C836 C 0.50783 0.53573 0.08888
 H837 H 0.51193 0.60373 -0.00335
 H838 H 0.41939 0.53003 0.01072
 H839 H 0.52943 0.49878 0.04787
 H840 H 0.50781 0.49838 -0.05749
 H841 H 0.40426 0.60566 -0.01237
 H842 H 0.39914 0.50570 -0.05579
 H843 H 0.43630 0.46200 -0.06388
 H844 H 0.53545 0.43028 -0.02713
 H845 H 0.44941 0.63735 0.01788
 H846 H 0.54881 0.60431 0.05876
 H847 H 0.58157 0.55666 0.05733
 H848 H 0.57525 0.45458 0.01207
 H849 H 0.41165 0.60310 0.03513
 H850 H 0.42993 0.50067 0.08037
 H851 H 0.55269 0.56258 -0.08305
 H852 H 0.57500 0.46510 -0.03562
 Zr853 Zr 0.01662 1.05668 0.45856
 O854 O 0.05243 1.04350 0.42958
 O855 O 0.00304 1.10020 0.44274
 O856 O -0.00342 1.05057 0.41723
 O857 O 0.06723 1.08351 0.51119
 O858 O -0.04556 1.01762 0.42472
 O859 O 0.05744 1.08651 0.46367
 O860 O -0.04016 1.11375 0.46929
 O861 O -0.03269 1.05552 0.46417
 O862 O 0.00657 1.08169 0.49575
 O863 O 0.00389 1.00857 0.46024
 O864 O 0.04276 1.03386 0.49071
 Zr865 Zr -0.03067 1.00906 0.53772
 Zr866 Zr -0.04503 1.00786 0.46825
 Zr867 Zr 0.03002 1.05758 0.52805
 Zr868 Zr -0.04209 1.07933 0.50183
 O869 O 0.07389 1.04096 0.54402
 O870 O -0.08806 1.08371 0.48408
 O871 O -0.01876 1.05751 0.53610
 O872 O -0.05656 1.03205 0.50557
 O873 O -0.02111 0.98396 0.50040
 O874 O 0.01837 1.00996 0.53182
 C875 C -0.02091 1.11757 0.44845
 C876 C 0.07359 1.09346 0.48626
 C877 C -0.02805 1.03486 0.40873
 O878 O -0.09110 1.02233 0.45610
 O879 O -0.07874 0.97646 0.48551
 O880 O -0.06920 0.97717 0.53315
 C881 C -0.08439 0.96742 0.51105
 O882 O 0.06530 0.98548 0.46401
 Zr883 Zr 0.02768 0.98671 0.49384
 O884 O -0.01742 0.96429 0.55222
 O885 O -0.04212 0.96446 0.44604
 O886 O 0.02057 0.94641 0.46781
 O887 O 0.07062 0.97726 0.51564
 O888 O 0.01909 0.94744 0.51981
 C889 C 0.00063 0.94329 0.54103
 O890 O -0.06808 1.02071 0.56564
 O891 O 0.02945 1.10304 0.54693
 O892 O -0.01381 1.01887 0.57942
 O893 O 0.02650 1.05376 0.57193
 O894 O -0.03299 1.12319 0.52210
 O895 O -0.07425 1.08559 0.53597
 C896 C 0.00864 1.03731 0.58812
 H897 H 0.01346 1.10406 0.49492
 H898 H -0.07956 1.03114 0.50952
 H899 H 0.03005 0.99989 0.54765
 H900 H 0.00912 0.99783 0.44220
 H901 H -0.09409 1.10636 0.48504
 H902 H -0.09957 1.00573 0.44333
 H903 H -0.06252 0.96177 0.43592
 H904 H 0.03623 0.93015 0.47361
 H905 H -0.04895 1.13851 0.51506
 H906 H 0.04972 1.10552 0.55732
 H907 H 0.08251 1.05773 0.55652
 H908 H 0.07561 0.95456 0.51277
 H909 H -0.08708 1.10487 0.53266
 H910 H -0.06977 1.00316 0.57954
 H911 H 0.05455 1.06129 0.41601
 H912 H 0.07603 0.96467 0.46495
 Zr913 Zr 0.69382 0.26448 0.21058
 O914 O 0.70626 0.30004 0.18109
 O915 O 0.65009 0.25037 0.19553
 O916 O 0.69914 0.24420 0.16935
 O917 O 0.66811 0.31565 0.26305
 O918 O 0.73254 0.20232 0.17659
 O919 O 0.66391 0.30523 0.21574
 O920 O 0.63702 0.20765 0.22287
 O921 O 0.69523 0.21525 0.21661
 O922 O 0.66960 0.25474 0.24822
 O923 O 0.74204 0.25183 0.21164
 O924 O 0.71731 0.29093 0.24208
 Zr925 Zr 0.74335 0.21792 0.28942
 Zr926 Zr 0.74302 0.20302 0.22002
 Zr927 Zr 0.69438 0.27852 0.27985
 Zr928 Zr 0.67225 0.20616 0.25474
 O929 O 0.71152 0.32233 0.29534
 O930 O 0.66754 0.16003 0.23755
 O931 O 0.69481 0.22984 0.28836
 O932 O 0.71966 0.19180 0.25784
 O933 O 0.76759 0.22719 0.25160
 O934 O 0.74216 0.26689 0.28315
 C935 C 0.63281 0.22656 0.20183
 C936 C 0.65748 0.32169 0.23824
 C937 C 0.71485 0.21965 0.16076
 O938 O 0.72822 0.15700 0.20826
 O939 O 0.77457 0.16923 0.23699
 O940 O 0.77497 0.17911 0.28457
 C941 C 0.78412 0.16366 0.26241
 O942 O 0.76518 0.31327 0.21456
 Zr943 Zr 0.76458 0.27590 0.24471
 O944 O 0.78863 0.23124 0.30286
 O945 O 0.78612 0.20573 0.19733
 O946 O 0.80432 0.26869 0.21802
 O947 O 0.77423 0.31897 0.26612
 O948 O 0.80456 0.26762 0.26997
 C949 C 0.80935 0.24921 0.29114
 O950 O 0.73275 0.18080 0.31801
 O951 O 0.64919 0.27850 0.29929
 O952 O 0.73369 0.23492 0.33116
 O953 O 0.69850 0.27502 0.32363
 O954 O 0.62887 0.21551 0.27574
 O955 O 0.66689 0.17443 0.28935
 C956 C 0.71502 0.25722 0.33984
 H957 H 0.64719 0.26160 0.24766
 H958 H 0.72066 0.16883 0.26195
 H959 H 0.75249 0.27863 0.29879
 H960 H 0.75240 0.25693 0.19340
 H961 H 0.64493 0.15397 0.23904
 H962 H 0.74459 0.14841 0.19533
 H963 H 0.78859 0.18533 0.18722
 H964 H 0.82067 0.28442 0.22338
 H965 H 0.61339 0.19946 0.26920
 H966 H 0.64699 0.29884 0.30956
 H967 H 0.69499 0.33110 0.30800
 H968 H 0.79687 0.32400 0.26296
 H969 H 0.64755 0.16155 0.28653
 H970 H 0.75067 0.17944 0.33159
 H971 H 0.68820 0.30197 0.16774
 H972 H 0.78590 0.32419 0.21531
 Zr973 Zr 0.80861 0.73553 0.71055
 O974 O 0.79667 0.70002 0.68084
 O975 O 0.85236 0.74996 0.69595
 O976 O 0.80346 0.75594 0.66932
 O977 O 0.83454 0.68449 0.76314
 O978 O 0.76947 0.79737 0.67632
 O979 O 0.83868 0.69491 0.71582
 O980 O 0.86486 0.79282 0.72333
 O981 O 0.80674 0.78471 0.71662
 O982 O 0.83255 0.74536 0.74838
 O983 O 0.76029 0.74772 0.71123
 O984 O 0.78520 0.70880 0.74186
 Zr985 Zr 0.75831 0.78139 0.78901
 Zr986 Zr 0.75880 0.79650 0.71967
 Zr987 Zr 0.80782 0.72129 0.77983
 Zr988 Zr 0.82943 0.79390 0.75493
 O989 O 0.79119 0.67718 0.79507
 O990 O 0.83386 0.84012 0.73785
 O991 O 0.80695 0.76993 0.78839
 O992 O 0.78188 0.80784 0.75765
 O993 O 0.73429 0.77202 0.75104
 O994 O 0.75994 0.73246 0.78267
 C995 C 0.86938 0.77393 0.70235
 C996 C 0.84516 0.67850 0.73835
 C997 C 0.78750 0.78030 0.66062
 O998 O 0.77326 0.84270 0.70815
 O999 O 0.72673 0.82984 0.73652
 O1000 O 0.72622 0.81974 0.78406
 C1001 C 0.71698 0.83516 0.76190
 O1002 O 0.73762 0.68616 0.71379
 Zr1003 Zr 0.73778 0.72336 0.74409
 O1004 O 0.71327 0.76753 0.80228
 O1005 O 0.71592 0.79351 0.69658
 O1006 O 0.69807 0.73053 0.71723
 O1007 O 0.72841 0.68004 0.76517
 O1008 O 0.69771 0.73105 0.76931
 C1009 C 0.69278 0.74930 0.79055
 O1010 O 0.76865 0.81859 0.81760
 O1011 O 0.85283 0.72187 0.79968
 O1012 O 0.76745 0.76431 0.83077
 O1013 O 0.80299 0.72445 0.82361
 O1014 O 0.87281 0.78494 0.77620
 O1015 O 0.83421 0.82561 0.78962
 C1016 C 0.78604 0.74204 0.83963
 H1017 H 0.85502 0.73868 0.74798
 H1018 H 0.78062 0.83078 0.76179
 H1019 H 0.74961 0.72053 0.79817
 H1020 H 0.75009 0.74257 0.69290
 H1021 H 0.85639 0.84640 0.73959
 H1022 H 0.75687 0.85119 0.69514
 H1023 H 0.71329 0.81397 0.68657
 H1024 H 0.68180 0.71468 0.72247
 H1025 H 0.88813 0.80121 0.76983
 H1026 H 0.85518 0.70153 0.80994
 H1027 H 0.80776 0.66856 0.80782
 H1028 H 0.70583 0.67481 0.76180
 H1029 H 0.85348 0.83863 0.78703
 H1030 H 0.75068 0.81990 0.83108
 H1031 H 0.81483 0.69831 0.66763
 H1032 H 0.71687 0.67526 0.71419
 Zr1033 Zr 0.19352 0.23344 0.78963
 O1034 O 0.20606 0.19792 0.81916
 O1035 O 0.14957 0.24709 0.80430
 O1036 O 0.19860 0.25384 0.83089
 O1037 O 0.16792 0.18235 0.73696
 O1038 O 0.23209 0.29565 0.82387
 O1039 O 0.16368 0.19268 0.78428
 O1040 O 0.13653 0.29001 0.77713
 O1041 O 0.19479 0.28268 0.78367
 O1042 O 0.16937 0.24317 0.75187
 O1043 O 0.24169 0.24620 0.78882
 O1044 O 0.21712 0.20704 0.75820
 Zr1045 Zr 0.24290 0.28016 0.71111
 Zr1046 Zr 0.24257 0.29504 0.78047
 Zr1047 Zr 0.19424 0.21943 0.72033
 Zr1048 Zr 0.17183 0.29175 0.74545
 O1049 O 0.21161 0.17559 0.70510
 O1050 O 0.16695 0.33781 0.76276
 O1051 O 0.19443 0.26812 0.71188
 O1052 O 0.21918 0.30626 0.74260
 O1053 O 0.26720 0.27091 0.74897
 O1054 O 0.24194 0.23118 0.71732
 C1055 C 0.13227 0.27092 0.79802
 C1056 C 0.15724 0.17632 0.76172
 C1057 C 0.21433 0.27835 0.83960
 O1058 O 0.22762 0.34104 0.79217
 O1059 O 0.27419 0.32879 0.76348
 O1060 O 0.27454 0.31882 0.71592
 C1061 C 0.28374 0.33427 0.73805
 O1062 O 0.26481 0.18471 0.78588
 Zr1063 Zr 0.26433 0.22219 0.75584
 O1064 O 0.28806 0.26686 0.69767
 O1065 O 0.28562 0.29247 0.80337
 O1066 O 0.30396 0.22961 0.78270
 O1067 O 0.27449 0.17915 0.73458
 O1068 O 0.30418 0.23050 0.73058
 C1069 C 0.30881 0.24885 0.70936
 O1070 O 0.23199 0.31738 0.68268
 O1071 O 0.14920 0.21936 0.70052
 O1072 O 0.23360 0.26327 0.66934
 O1073 O 0.19873 0.22288 0.67654
 O1074 O 0.12840 0.28265 0.72437
 O1075 O 0.16659 0.32342 0.71077
 C1076 C 0.21521 0.24085 0.66050
 H1077 H 0.14697 0.23628 0.75226
 H1078 H 0.22014 0.32922 0.73850
 H1079 H 0.25235 0.21945 0.70174
 H1080 H 0.25202 0.24110 0.80710
 H1081 H 0.14433 0.34383 0.76114
 H1082 H 0.24403 0.34970 0.80505
 H1083 H 0.28805 0.31294 0.81338
 H1084 H 0.32043 0.21400 0.77736
 H1085 H 0.11307 0.29893 0.73073
 H1086 H 0.14718 0.19903 0.69019
 H1087 H 0.19523 0.16678 0.69228
 H1088 H 0.29709 0.17415 0.73813
 H1089 H 0.14749 0.33663 0.71364
 H1090 H 0.24981 0.31889 0.66906
 H1091 H 0.18796 0.19591 0.83240
 H1092 H 0.28578 0.17421 0.78566
 Zr1093 Zr 0.30480 0.76808 0.28976
 O1094 O 0.29169 0.80348 0.31915
 O1095 O 0.34885 0.75495 0.30474
 O1096 O 0.29988 0.74758 0.33102
 O1097 O 0.32957 0.81963 0.23721
 O1098 O 0.26697 0.70535 0.32379
 O1099 O 0.33425 0.80913 0.28448
 O1100 O 0.36246 0.71226 0.27757
 O1101 O 0.30413 0.71883 0.28381
 O1102 O 0.32916 0.75863 0.25212
 O1103 O 0.25679 0.75477 0.28869
 O1104 O 0.28096 0.79417 0.25818
 Zr1105 Zr 0.25615 0.72072 0.21100
 Zr1106 Zr 0.25651 0.70593 0.28038
 Zr1107 Zr 0.30408 0.78203 0.22043
 Zr1108 Zr 0.32728 0.71002 0.24572
 O1109 O 0.28635 0.82554 0.20470
 O1110 O 0.33274 0.66406 0.26315
 O1111 O 0.30447 0.73334 0.21203
 O1112 O 0.28011 0.69495 0.24264
 O1113 O 0.23167 0.72973 0.24874
 O1114 O 0.25653 0.76972 0.21715
 C1115 C 0.36643 0.73134 0.29851
 C1116 C 0.34035 0.82567 0.26195
 C1117 C 0.28448 0.72282 0.33961
 O1118 O 0.27181 0.66006 0.29217
 O1119 O 0.22531 0.67184 0.26341
 O1120 O 0.22486 0.68172 0.21583
 C1121 C 0.21582 0.66622 0.23798
 O1122 O 0.23256 0.81571 0.28580
 Zr1123 Zr 0.23394 0.77848 0.25556
 O1124 O 0.21089 0.73357 0.19725
 O1125 O 0.21338 0.70821 0.30307
 O1126 O 0.19416 0.77064 0.28205
 O1127 O 0.22384 0.82150 0.23419
 O1128 O 0.19426 0.76971 0.23008
 C1129 C 0.18989 0.75130 0.20886
 O1130 O 0.26745 0.68353 0.18270
 O1131 O 0.34932 0.78261 0.20111
 O1132 O 0.26566 0.73755 0.16924
 O1133 O 0.30003 0.77834 0.17663
 O1134 O 0.37054 0.71979 0.22469
 O1135 O 0.33311 0.67820 0.21125
 C1136 C 0.28393 0.76010 0.16049
 H1137 H 0.35147 0.76579 0.25263
 H1138 H 0.27944 0.67197 0.23858
 H1139 H 0.24607 0.78129 0.20147
 H1140 H 0.24633 0.75974 0.30692
 H1141 H 0.35544 0.65834 0.26170
 H1142 H 0.25556 0.65134 0.30515
 H1143 H 0.21114 0.68779 0.31320
 H1144 H 0.17759 0.78613 0.27661
 H1145 H 0.38622 0.70395 0.23129
 H1146 H 0.35118 0.80294 0.19074
 H1147 H 0.30281 0.83450 0.19208
 H1148 H 0.20111 0.82622 0.23722
 H1149 H 0.35258 0.66552 0.21416
 H1150 H 0.24964 0.68181 0.16904
 H1151 H 0.30973 0.80577 0.33246
 H1152 H 0.21170 0.82638 0.28493
 Zr1153 Zr 0.19279 0.76558 0.70992
 O1154 O 0.20534 0.80129 0.68061
 O1155 O 0.14919 0.75148 0.69467
 O1156 O 0.19837 0.74547 0.66864
 O1157 O 0.16666 0.81650 0.76245
 O1158 O 0.23182 0.70363 0.67591
 O1159 O 0.16278 0.80626 0.71508
 O1160 O 0.13606 0.70861 0.72182
 O1161 O 0.19427 0.71634 0.71581
 O1162 O 0.16837 0.75564 0.74743
 O1163 O 0.24101 0.75304 0.71113
 O1164 O 0.21600 0.79196 0.74163
 Zr1165 Zr 0.24191 0.71883 0.78877
 Zr1166 Zr 0.24208 0.70419 0.71936
 Zr1167 Zr 0.19289 0.77935 0.77927
 Zr1168 Zr 0.17110 0.70704 0.75382
 O1169 O 0.20969 0.82319 0.79501
 O1170 O 0.16650 0.66098 0.73645
 O1171 O 0.19335 0.73065 0.78763
 O1172 O 0.21852 0.69274 0.75702
 O1173 O 0.26638 0.72832 0.75112
 O1174 O 0.24066 0.76783 0.78264
 C1175 C 0.13194 0.72761 0.70083
 C1176 C 0.15620 0.82262 0.73760
 C1177 C 0.21419 0.72098 0.66006
 O1178 O 0.22746 0.65816 0.70746
 O1179 O 0.27375 0.67054 0.73639
 O1180 O 0.27384 0.68029 0.78399
 C1181 C 0.28322 0.66497 0.76184
 O1182 O 0.26394 0.81449 0.71429
 Zr1183 Zr 0.26329 0.77704 0.74436
 O1184 O 0.28689 0.73232 0.80261
 O1185 O 0.28525 0.70710 0.69681
 O1186 O 0.30323 0.77001 0.71787
 O1187 O 0.27274 0.82008 0.76589
 O1188 O 0.30308 0.76873 0.76985
 C1189 C 0.30766 0.75034 0.79107
 O1190 O 0.23104 0.68153 0.81708
 O1191 O 0.14760 0.77900 0.79850
 O1192 O 0.23233 0.73571 0.83049
 O1193 O 0.19708 0.77579 0.82308
 O1194 O 0.12753 0.71610 0.77460
 O1195 O 0.16575 0.67520 0.78834
 C1196 C 0.21373 0.75801 0.83922
 H1197 H 0.14594 0.76246 0.74680
 H1198 H 0.21957 0.66977 0.76107
 H1199 H 0.25089 0.77956 0.79833
 H1200 H 0.25146 0.75824 0.69295
 H1201 H 0.14389 0.65489 0.73787
 H1202 H 0.24397 0.64963 0.69464
 H1203 H 0.28781 0.68674 0.68664
 H1204 H 0.31949 0.78577 0.72337
 H1205 H 0.11223 0.69990 0.76803
 H1206 H 0.14526 0.79929 0.80884
 H1207 H 0.19300 0.83186 0.80756
 H1208 H 0.29538 0.82517 0.76281
 H1209 H 0.14653 0.66218 0.78540
 H1210 H 0.24884 0.68006 0.83077
 H1211 H 0.18733 0.80329 0.66722
 H1212 H 0.28465 0.82543 0.71512
 Zr1213 Zr 0.30699 0.23322 0.20881
 O1214 O 0.29485 0.19758 0.17930
 O1215 O 0.35052 0.24776 0.19379
 O1216 O 0.30130 0.25366 0.16758
 O1217 O 0.33355 0.18238 0.26144
 O1218 O 0.26747 0.29516 0.17494
 O1219 O 0.33744 0.19276 0.21410
 O1220 O 0.36324 0.29057 0.22116
 O1221 O 0.30501 0.28242 0.21488
 O1222 O 0.33123 0.24320 0.24647
 O1223 O 0.25864 0.24534 0.20990
 O1224 O 0.28396 0.20648 0.24035
 Zr1225 Zr 0.25733 0.27909 0.28765
 Zr1226 Zr 0.25708 0.29414 0.21833
 Zr1227 Zr 0.30687 0.21913 0.27815
 Zr1228 Zr 0.32807 0.29174 0.25298
 O1229 O 0.29042 0.17504 0.29360
 O1230 O 0.33213 0.33787 0.23562
 O1231 O 0.30598 0.26778 0.28664
 O1232 O 0.28054 0.30556 0.25610
 O1233 O 0.23295 0.26960 0.24990
 O1234 O 0.25898 0.23016 0.28138
 C1235 C 0.36759 0.27171 0.20014
 C1236 C 0.34417 0.17644 0.23666
 C1237 C 0.28530 0.27811 0.15905
 O1238 O 0.27111 0.34040 0.20656
 O1239 O 0.22525 0.32759 0.23548
 O1240 O 0.22552 0.31769 0.28306
 C1241 C 0.21602 0.33311 0.26099
 O1242 O 0.23630 0.18374 0.21262
 Zr1243 Zr 0.23651 0.22091 0.24294
 O1244 O 0.21225 0.26525 0.30086
 O1245 O 0.21391 0.29083 0.19571
 O1246 O 0.19652 0.22783 0.21638
 O1247 O 0.22764 0.17757 0.26417
 O1248 O 0.19654 0.22828 0.26837
 C1249 C 0.19174 0.24679 0.28943
 O1250 O 0.26766 0.31614 0.31641
 O1251 O 0.35210 0.21987 0.29760
 O1252 O 0.26702 0.26210 0.32935
 O1253 O 0.30266 0.22241 0.32196
 O1254 O 0.37169 0.28308 0.27394
 O1255 O 0.33312 0.32353 0.28757
 C1256 C 0.28587 0.24000 0.33809
 H1257 H 0.35372 0.23662 0.24593
 H1258 H 0.27932 0.32850 0.26023
 H1259 H 0.24884 0.21826 0.29700
 H1260 H 0.24827 0.24017 0.19165
 H1261 H 0.35466 0.34423 0.23712
 H1262 H 0.25456 0.34874 0.19364
 H1263 H 0.21114 0.31118 0.18557
 H1264 H 0.18045 0.21177 0.22163
 H1265 H 0.38683 0.29946 0.26748
 H1266 H 0.35462 0.19958 0.30792
 H1267 H 0.30708 0.16652 0.30633
 H1268 H 0.20510 0.17212 0.26090
 H1269 H 0.35211 0.33687 0.28462
 H1270 H 0.24978 0.31730 0.32999
 H1271 H 0.31292 0.19585 0.16600
 H1272 H 0.21570 0.17259 0.21328
 Zr1273 Zr 0.69293 0.73434 0.28995
 O1274 O 0.70613 0.69857 0.31902
 O1275 O 0.64946 0.74808 0.30571
 O1276 O 0.69920 0.75433 0.33123
 O1277 O 0.66585 0.68382 0.23742
 O1278 O 0.73235 0.79630 0.32370
 O1279 O 0.66309 0.69352 0.28494
 O1280 O 0.63598 0.79132 0.27913
 O1281 O 0.69427 0.78362 0.28427
 O1282 O 0.66783 0.74449 0.25277
 O1283 O 0.74111 0.74691 0.28824
 O1284 O 0.71557 0.70816 0.25783
 Zr1285 Zr 0.74061 0.78147 0.21071
 Zr1286 Zr 0.74200 0.79580 0.28016
 Zr1287 Zr 0.69179 0.72100 0.22051
 Zr1288 Zr 0.67038 0.79312 0.24661
 O1289 O 0.70819 0.67717 0.20443
 O1290 O 0.66624 0.83909 0.26427
 O1291 O 0.69207 0.76975 0.21238
 O1292 O 0.71774 0.80741 0.24283
 O1293 O 0.76575 0.77179 0.24804
 O1294 O 0.73949 0.73246 0.21668
 C1295 C 0.63214 0.77206 0.29998
 C1296 C 0.65606 0.67738 0.26239
 C1297 C 0.71506 0.77885 0.33971
 O1298 O 0.72775 0.84188 0.29229
 O1299 O 0.77347 0.82942 0.26283
 O1300 O 0.77259 0.81994 0.21519
 C1301 C 0.78245 0.83509 0.23727
 O1302 O 0.76404 0.68551 0.28463
 Zr1303 Zr 0.76279 0.72304 0.25467
 O1304 O 0.78545 0.76812 0.19636
 O1305 O 0.78548 0.79270 0.30233
 O1306 O 0.80324 0.73005 0.28063
 O1307 O 0.77181 0.68002 0.23297
 O1308 O 0.80204 0.73128 0.22865
 C1309 C 0.80633 0.74984 0.20752
 O1310 O 0.72908 0.81889 0.18269
 O1311 O 0.64620 0.72175 0.20174
 O1312 O 0.73054 0.76466 0.16903
 O1313 O 0.69535 0.72464 0.17664
 O1314 O 0.62640 0.78419 0.22638
 O1315 O 0.66411 0.82521 0.21237
 C1316 C 0.71185 0.74239 0.16040
 H1317 H 0.64543 0.73765 0.25364
 H1318 H 0.71872 0.83040 0.23885
 H1319 H 0.74947 0.72077 0.20085
 H1320 H 0.75189 0.74163 0.30628
 H1321 H 0.64360 0.84520 0.26333
 H1322 H 0.74445 0.85026 0.30502
 H1323 H 0.78827 0.81307 0.31244
 H1324 H 0.81943 0.71431 0.27489
 H1325 H 0.61116 0.80023 0.23336
 H1326 H 0.64356 0.70149 0.19142
 H1327 H 0.69128 0.66862 0.19201
 H1328 H 0.79450 0.67487 0.23579
 H1329 H 0.64495 0.83820 0.21572
 H1330 H 0.74659 0.82045 0.16877
 H1331 H 0.68833 0.69644 0.33257
 H1332 H 0.78480 0.67466 0.28362
 Zr1333 Zr 0.80765 0.26641 0.79151
 O1334 O 0.79457 0.30229 0.82045
 O1335 O 0.85123 0.25277 0.80725
 O1336 O 0.80171 0.24656 0.83285
 O1337 O 0.83432 0.31683 0.73877
 O1338 O 0.76856 0.20451 0.82554
 O1339 O 0.83754 0.30716 0.78629
 O1340 O 0.86462 0.20953 0.78070
 O1341 O 0.80633 0.21710 0.78599
 O1342 O 0.83249 0.25619 0.75429
 O1343 O 0.75947 0.25373 0.79000
 O1344 O 0.78473 0.29249 0.75941
 Zr1345 Zr 0.75950 0.21901 0.71260
 Zr1346 Zr 0.75858 0.20481 0.78204
 Zr1347 Zr 0.80827 0.27958 0.72206
 Zr1348 Zr 0.82997 0.20753 0.74830
 O1349 O 0.79162 0.32336 0.70597
 O1350 O 0.83424 0.16165 0.76616
 O1351 O 0.80803 0.23081 0.71407
 O1352 O 0.78261 0.19316 0.74469
 O1353 O 0.73458 0.22872 0.74996
 O1354 O 0.76056 0.26804 0.71842
 C1355 C 0.86857 0.22883 0.80150
 C1356 C 0.84440 0.32326 0.76367
 C1357 C 0.78595 0.22204 0.84143
 O1358 O 0.77304 0.15879 0.79421
 O1359 O 0.72698 0.17113 0.76484
 O1360 O 0.72760 0.18056 0.71719
 C1361 C 0.71786 0.16543 0.73930
 O1362 O 0.73654 0.31518 0.78624
 Zr1363 Zr 0.73750 0.27749 0.75645
 O1364 O 0.71459 0.23230 0.69829
 O1365 O 0.71527 0.20778 0.80437
 O1366 O 0.69735 0.27053 0.78269
 O1367 O 0.72802 0.32037 0.73463
 O1368 O 0.69803 0.26898 0.73066
 C1369 C 0.69370 0.25044 0.70953
 O1370 O 0.77097 0.18155 0.68465
 O1371 O 0.85370 0.27898 0.70310
 O1372 O 0.76918 0.23566 0.67087
 O1373 O 0.80435 0.27578 0.67822
 O1374 O 0.87379 0.21643 0.72788
 O1375 O 0.83608 0.17527 0.71420
 C1376 C 0.78775 0.25794 0.66212
 H1377 H 0.85489 0.26304 0.75506
 H1378 H 0.78163 0.17016 0.74075
 H1379 H 0.75044 0.27967 0.70260
 H1380 H 0.74882 0.25903 0.80806
 H1381 H 0.85688 0.15556 0.76523
 H1382 H 0.75649 0.15041 0.80704
 H1383 H 0.71268 0.18744 0.81459
 H1384 H 0.68104 0.28615 0.77692
 H1385 H 0.88911 0.20047 0.73490
 H1386 H 0.85611 0.29917 0.69262
 H1387 H 0.80835 0.33186 0.69337
 H1388 H 0.70535 0.32545 0.73763
 H1389 H 0.85529 0.16235 0.71757
 H1390 H 0.75337 0.17988 0.67077
 H1391 H 0.81242 0.30446 0.83399
 H1392 H 0.71570 0.32591 0.78539
 C1393 C 0.47705 1.01025 0.35971
 C1394 C 0.44618 1.02709 0.35052
 C1395 C 0.46434 1.04443 0.32693
 C1396 C 0.49529 1.02756 0.33575
 C1397 C 0.47171 1.07217 0.34692
 C1398 C 0.45353 1.05482 0.37066
 C1399 C 0.48442 1.03789 0.37974
 C1400 C 0.50276 1.05531 0.35630
 H1401 H 0.47939 0.98477 0.36507
 H1402 H 0.42265 1.01566 0.34816
 H1403 H 0.51253 1.01646 0.32106
 H1404 H 0.46958 1.09775 0.34192
 H1405 H 0.43590 1.06607 0.38491
 H1406 H 0.52627 1.06669 0.35890
 C1407 C -0.02420 0.51132 0.86052
 C1408 C -0.05473 0.52857 0.85104
 C1409 C -0.03610 0.54539 0.82745
 C1410 C -0.00549 0.52811 0.83657
 C1411 C -0.02844 0.57320 0.84729
 C1412 C -0.04710 0.55636 0.87103
 C1413 C -0.01656 0.53903 0.88040
 C1414 C 0.00226 0.55592 0.85696
 H1415 H -0.02232 0.48585 0.86608
 H1416 H -0.07842 0.51749 0.84859
 H1417 H 0.01166 0.51661 0.82205
 H1418 H -0.03010 0.59877 0.84210
 H1419 H -0.06463 0.56802 0.88510
 H1420 H 0.02593 0.56694 0.85965
 C1421 C 0.04735 -0.05377 0.87091
 C1422 C 0.02916 -0.07153 0.84741
 C1423 C 0.03594 -0.04390 0.82715
 C1424 C 0.05410 -0.02612 0.85053
 C1425 C 0.00489 -0.02736 0.83604
 C1426 C -0.00201 -0.05504 0.85681
 C1427 C 0.01632 -0.03721 0.88004
 C1428 C 0.02311 -0.00961 0.85978
 H1429 H 0.06528 -0.06465 0.88514
 H1430 H 0.03164 -0.09709 0.84247
 H1431 H 0.07744 -0.01440 0.84789
 H1432 H -0.01259 -0.01661 0.82131
 H1433 H -0.02534 -0.06671 0.85960
 H1434 H 0.02048 0.01588 0.86497
 C1435 C 0.54799 0.44493 0.37178
 C1436 C 0.52992 0.42729 0.34813
 C1437 C 0.53704 0.45492 0.32797
 C1438 C 0.55508 0.47257 0.35150
 C1439 C 0.50599 0.47162 0.33664
 C1440 C 0.49875 0.44395 0.35732
 C1441 C 0.51697 0.46165 0.38069
 C1442 C 0.52410 0.48924 0.36052
 H1443 H 0.56573 0.43392 0.38613
 H1444 H 0.53233 0.40174 0.34316
 H1445 H 0.57850 0.48416 0.34905
 H1446 H 0.48871 0.48249 0.32180
 H1447 H 0.47533 0.43240 0.35995
 H1448 H 0.52157 0.51473 0.36574
 C1449 C 0.54647 0.55511 0.12886
 C1450 C 0.52829 0.57202 0.15283
 C1451 C 0.53607 0.54416 0.17257
 C1452 C 0.55421 0.52724 0.14873
 C1453 C 0.50525 0.52712 0.16378
 C1454 C 0.49734 0.55502 0.14351
 C1455 C 0.51568 0.53804 0.11982
 C1456 C 0.52346 0.51023 0.13959
 H1457 H 0.56389 0.56667 0.11461
 H1458 H 0.53029 0.59753 0.15815
 H1459 H 0.57787 0.51600 0.15093
 H1460 H 0.48829 0.51572 0.17855
 H1461 H 0.47370 0.56622 0.14115
 H1462 H 0.52135 0.48478 0.13405
 C1463 C -0.00173 1.05658 0.64280
 C1464 C 0.00582 1.02847 0.66296
 C1465 C 0.03680 1.04513 0.67192
 C1466 C 0.02935 1.07323 0.65230
 C1467 C 0.05489 1.02820 0.64805
 C1468 C 0.02398 1.01156 0.63873
 C1469 C 0.01654 1.03958 0.61907
 C1470 C 0.04747 1.05628 0.62828
 H1471 H -0.02523 1.06805 0.64041
 H1472 H -0.01137 1.01712 0.67755
 H1473 H 0.03149 1.09873 0.65761
 H1474 H 0.07842 1.01669 0.65021
 H1475 H 0.02163 0.98618 0.63304
 H1476 H 0.06501 1.06777 0.61411
 C1477 C 0.00157 0.44501 0.64313
 C1478 C -0.00539 0.47274 0.66382
 C1479 C -0.03631 0.45610 0.67287
 C1480 C -0.02947 0.42841 0.65271
 C1481 C -0.05467 0.47370 0.64950
 C1482 C -0.02382 0.49031 0.64009
 C1483 C -0.01697 0.46267 0.61991
 C1484 C -0.04786 0.44601 0.62920
 H1485 H 0.02495 0.43342 0.64029
 H1486 H 0.01209 0.48362 0.67845
 H1487 H -0.03181 0.40287 0.65779
 H1488 H -0.07806 0.48533 0.65218
 H1489 H -0.02137 0.51579 0.63479
 H1490 H -0.06579 0.43499 0.61507
 C1491 C 0.49362 -0.06577 0.14052
 C1492 C 0.49756 -0.04079 0.16445
 C1493 C 0.46236 -0.04518 0.17215
 C1494 C 0.45833 -0.07004 0.14868
 C1495 C 0.45310 -0.01847 0.15144
 C1496 C 0.48834 -0.01409 0.14336
 C1497 C 0.48433 -0.03901 0.11998
 C1498 C 0.44913 -0.04332 0.12790
 H1499 H 0.51063 -0.08509 0.13582
 H1500 H 0.51742 -0.03996 0.17987
 H1501 H 0.44591 -0.09308 0.15053
 H1502 H 0.43606 0.00092 0.15588
 H1503 H 0.50076 0.00891 0.14103
 H1504 H 0.42894 -0.04410 0.11281
 C1505 C 0.35281 0.45155 0.01330
 C1506 C 0.34716 0.42276 -0.00637
 C1507 C 0.34077 0.40194 0.01983
 C1508 C 0.34622 0.43051 0.03956
 C1509 C 0.37621 0.39327 0.02173
 C1510 C 0.38283 0.41430 -0.00447
 C1511 C 0.38817 0.44288 0.01524
 C1512 C 0.38189 0.42209 0.04143
 H1513 H 0.34326 0.47574 0.00991
 H1514 H 0.33317 0.42326 -0.02629
 H1515 H 0.33093 0.43717 0.05772
 H1516 H 0.38571 0.36905 0.02506
 H1517 H 0.39815 0.40765 -0.02261
 H1518 H 0.39634 0.42182 0.06110
 C1519 C -0.14617 0.95216 0.51293
 C1520 C -0.15159 0.92333 0.49322
 C1521 C -0.15782 0.90246 0.51943
 C1522 C -0.15265 0.93106 0.53919
 C1523 C -0.12233 0.89403 0.52137
 C1524 C -0.11586 0.91514 0.49518
 C1525 C -0.11076 0.94374 0.51491
 C1526 C -0.11691 0.92289 0.54108
 H1527 H -0.15589 0.97629 0.50953
 H1528 H -0.16537 0.92388 0.47319
 H1529 H -0.16800 0.93763 0.55734
 H1530 H -0.11263 0.86988 0.52463
 H1531 H -0.10046 0.90861 0.47705
 H1532 H -0.10248 0.92276 0.56076
 C1533 C -0.11637 0.08527 1.00548
 C1534 C -0.12307 0.10692 0.97969
 C1535 C -0.15848 0.09819 0.98142
 C1536 C -0.15201 0.07676 1.00721
 C1537 C -0.15307 0.07012 0.96113
 C1538 C -0.11742 0.07859 0.95944
 C1539 C -0.11106 0.05718 0.98522
 C1540 C -0.14639 0.04845 0.98698
 H1541 H -0.10099 0.09147 1.02375
 H1542 H -0.11365 0.13123 0.97686
 H1543 H -0.16595 0.07578 1.02711
 H1544 H -0.16842 0.06391 0.94285
 H1545 H -0.10302 0.07931 0.93979
 H1546 H -0.15588 0.02418 0.98989
 C1547 C 0.38611 0.58771 0.50243
 C1548 C 0.37760 0.60639 0.47522
 C1549 C 0.34231 0.59852 0.47992
 C1550 C 0.35060 0.58005 0.50711
 C1551 C 0.34586 0.56816 0.46209
 C1552 C 0.38137 0.57578 0.45744
 C1553 C 0.38957 0.55735 0.48463
 C1554 C 0.35437 0.54947 0.48934
 H1555 H 0.40294 0.59572 0.51903
 H1556 H 0.38727 0.62996 0.46947
 H1557 H 0.33822 0.58167 0.52779
 H1558 H 0.32907 0.56013 0.44546
 H1559 H 0.39418 0.57402 0.43697
 H1560 H 0.34489 0.52583 0.49509
 C1561 C 0.11705 0.57806 0.54105
 C1562 C 0.15264 0.56938 0.53910
 C1563 C 0.15814 0.59781 0.51920
 C1564 C 0.12277 0.60673 0.52120
 C1565 C 0.15141 0.57691 0.49313
 C1566 C 0.14571 0.54825 0.51296
 C1567 C 0.11042 0.55719 0.51499
 C1568 C 0.11582 0.58562 0.49511
 H1569 H 0.10275 0.57854 0.56076
 H1570 H 0.16803 0.56270 0.55723
 H1571 H 0.11347 0.63103 0.52444
 H1572 H 0.16527 0.57622 0.47318
 H1573 H 0.15504 0.52397 0.50965
 H1574 H 0.10040 0.59230 0.47700
 C1575 C 0.61560 0.08604 -0.00362
 C1576 C 0.62260 0.10648 0.02288
 C1577 C 0.65800 0.09790 0.02049
 C1578 C 0.65124 0.07767 -0.00601
 C1579 C 0.65291 0.06889 0.03978
 C1580 C 0.61727 0.07723 0.04214
 C1581 C 0.61061 0.05703 0.01566
 C1582 C 0.64594 0.04844 0.01322
 H1583 H 0.59995 0.09307 -0.02147
 H1584 H 0.61322 0.13065 0.02668
 H1585 H 0.66494 0.07765 -0.02606
 H1586 H 0.66850 0.06184 0.05765
 H1587 H 0.60313 0.07705 0.06195
 H1588 H 0.65544 0.02434 0.00930
 C1589 C 0.61856 0.92188 0.45862
 C1590 C 0.65418 0.93055 0.46015
 C1591 C 0.65997 0.90236 0.48026
 C1592 C 0.62459 0.89344 0.47869
 C1593 C 0.65364 0.92358 0.50619
 C1594 C 0.64764 0.95200 0.48614
 C1595 C 0.61234 0.94307 0.48454
 C1596 C 0.61803 0.91487 0.50463
 H1597 H 0.60397 0.92119 0.43905
 H1598 H 0.66929 0.93698 0.44180
 H1599 H 0.61532 0.86909 0.47579
 H1600 H 0.66777 0.92452 0.52602
 H1601 H 0.65702 0.97631 0.48912
 H1602 H 0.60288 0.90845 0.52296
 C1603 C 0.14495 0.45042 0.98993
 C1604 C 0.14861 0.41985 1.00777
 C1605 C 0.15677 0.40130 0.98063
 C1606 C 0.15332 0.43165 0.96273
 C1607 C 0.12143 0.39358 0.97589
 C1608 C 0.11305 0.41234 1.00305
 C1609 C 0.10970 0.44269 0.98518
 C1610 C 0.11776 0.42418 0.95805
 H1611 H 0.15455 0.47403 0.99565
 H1612 H 0.16103 0.41820 1.02845
 H1613 H 0.17010 0.43959 0.94611
 H1614 H 0.11164 0.37004 0.97017
 H1615 H 0.09623 0.40442 1.01965
 H1616 H 0.10496 0.42604 0.93756
 C1617 C 0.03688 0.36964 0.40093
 C1618 C 0.06081 0.34218 0.39946
 C1619 C 0.03475 0.32180 0.38580
 C1620 C 0.01100 0.34915 0.38714
 C1621 C 0.02423 0.30978 0.41510
 C1622 C 0.05015 0.33070 0.42913
 C1623 C 0.02622 0.35791 0.43021
 C1624 C 0.00031 0.33747 0.41660
 H1625 H 0.04214 0.39465 0.39591
 H1626 H 0.08573 0.34485 0.39244
 H1627 H -0.00478 0.35678 0.36958
 H1628 H 0.01905 0.28470 0.42037
 H1629 H 0.06590 0.32338 0.44681
 H1630 H -0.02451 0.33566 0.42415
 C1631 C 0.53972 -0.13148 -0.10008
 C1632 C 0.56372 -0.15894 -0.10163
 C1633 C 0.53744 -0.17964 -0.11448
 C1634 C 0.51362 -0.15233 -0.11309
 C1635 C 0.52762 -0.19116 -0.08483
 C1636 C 0.55376 -0.16991 -0.07158
 C1637 C 0.52974 -0.14275 -0.07047
 C1638 C 0.50365 -0.16356 -0.08332
 H1639 H 0.54469 -0.10652 -0.10553
 H1640 H 0.58843 -0.15656 -0.10933
 H1641 H 0.49741 -0.14506 -0.13046
 H1642 H 0.52267 -0.21616 -0.07909
 H1643 H 0.56993 -0.17683 -0.05408
 H1644 H 0.47899 -0.16534 -0.07532
 C1645 C -0.00391 -0.16387 1.08249
 C1646 C -0.01515 -0.15269 1.11191
 C1647 C -0.03861 -0.18030 1.11268
 C1648 C -0.02753 -0.19179 1.08338
 C1649 C -0.06470 -0.15999 1.09899
 C1650 C -0.04105 -0.13223 1.09806
 C1651 C -0.02980 -0.14345 1.06879
 C1652 C -0.05347 -0.17091 1.06929
 H1653 H 0.02105 -0.16535 1.07524
 H1654 H 0.00030 -0.14514 1.12972
 H1655 H -0.02201 -0.21674 1.07788
 H1656 H -0.08971 -0.15789 1.10591
 H1657 H -0.04662 -0.10734 1.10333
 H1658 H -0.06889 -0.17810 1.05134
 C1659 C 0.46150 0.36866 0.60004
 C1660 C 0.43746 0.34127 0.60166
 C1661 C 0.46378 0.32048 0.61438
 C1662 C 0.48764 0.34772 0.61291
 C1663 C 0.47342 0.30897 0.58468
 C1664 C 0.44724 0.33033 0.57155
 C1665 C 0.47131 0.35742 0.57036
 C1666 C 0.49743 0.33651 0.58308
 H1667 H 0.45663 0.39361 0.60562
 H1668 H 0.41280 0.34372 0.60946
 H1669 H 0.50397 0.35491 0.63020
 H1670 H 0.47829 0.28396 0.57891
 H1671 H 0.43096 0.32347 0.55412
 H1672 H 0.52203 0.33466 0.57497
 C1673 C 0.54171 1.13137 0.59831
 C1674 C 0.56496 1.15945 0.59957
 C1675 C 0.53857 1.17922 0.61334
 C1676 C 0.51551 1.15129 0.61224
 C1677 C 0.52737 1.19091 0.58411
 C1678 C 0.55361 1.17056 0.56992
 C1679 C 0.53031 1.14278 0.56910
 C1680 C 0.50414 1.16269 0.58289
 H1681 H 0.54764 1.10650 0.60334
 H1682 H 0.58999 1.15767 0.60659
 H1683 H 0.50015 1.14332 0.62993
 H1684 H 0.52152 1.21585 0.57881
 H1685 H 0.56893 1.17817 0.55208
 H1686 H 0.47916 1.16393 0.57558
 C1687 C 0.03783 0.63070 1.10038
 C1688 C 0.06145 0.65846 1.10208
 C1689 C 0.03498 0.67860 1.11536
 C1690 C 0.01156 0.65098 1.11384
 C1691 C 0.02464 0.69043 1.08590
 C1692 C 0.05094 0.66971 1.07222
 C1693 C 0.02730 0.64226 1.07097
 C1694 C 0.00106 0.66250 1.08425
 H1695 H 0.04327 0.60574 1.10544
 H1696 H 0.08632 0.65608 1.10941
 H1697 H -0.00434 0.64315 1.13120
 H1698 H 0.01923 0.71542 1.08042
 H1699 H 0.06677 0.67710 1.05468
 H1700 H -0.02371 0.66406 1.07644
 C1701 C 0.49666 0.66269 -0.08364
 C1702 C 0.48587 0.65128 -0.11317
 C1703 C 0.46264 0.67910 -0.11455
 C1704 C 0.47326 0.69081 -0.08515
 C1705 C 0.43612 0.65915 -0.10114
 C1706 C 0.45957 0.63120 -0.09957
 C1707 C 0.47037 0.64263 -0.07021
 C1708 C 0.44692 0.67028 -0.07133
 H1709 H 0.52150 0.66405 -0.07598
 H1710 H 0.50160 0.64335 -0.13062
 H1711 H 0.47888 0.71575 -0.07971
 H1712 H 0.41118 0.65696 -0.10830
 H1713 H 0.45390 0.60629 -0.10466
 H1714 H 0.43125 0.67778 -0.05370
 C1715 C -0.05203 1.16857 0.42530
 C1716 C -0.02615 1.19034 0.41234
 C1717 C -0.03508 1.17824 0.38261
 C1718 C -0.06112 1.15701 0.39519
 C1719 C -0.01060 1.15156 0.38469
 C1720 C -0.00152 1.16332 0.41459
 C1721 C -0.02737 1.14204 0.42715
 C1722 C -0.03645 1.13021 0.39745
 H1723 H -0.06872 1.17530 0.44241
 H1724 H -0.02193 1.21550 0.41798
 H1725 H -0.08563 1.15358 0.38726
 H1726 H 0.00614 1.14443 0.36774
 H1727 H 0.02290 1.16580 0.42304
 H1728 H -0.04059 1.10509 0.39212
 C1729 C 0.76000 0.72624 0.89001
 C1730 C 0.77694 0.69545 0.89924
 C1731 C 0.79357 0.71354 0.92331
 C1732 C 0.77660 0.74439 0.91445
 C1733 C 0.82171 0.72137 0.90391
 C1734 C 0.80506 0.70327 0.87969
 C1735 C 0.78805 0.73407 0.87057
 C1736 C 0.80475 0.75233 0.89450
 H1737 H 0.73461 0.72838 0.88419
 H1738 H 0.76568 0.67181 0.90118
 H1739 H 0.76500 0.76135 0.92909
 H1740 H 0.84721 0.71946 0.90935
 H1741 H 0.81682 0.68591 0.86551
 H1742 H 0.81597 0.77595 0.89233
 C1743 C 0.30612 0.25067 0.39240
 C1744 C 0.27843 0.24340 0.41303
 C1745 C 0.29523 0.21244 0.42187
 C1746 C 0.32292 0.21962 0.40179
 C1747 C 0.27769 0.19426 0.39838
 C1748 C 0.26092 0.22514 0.38917
 C1749 C 0.28852 0.23232 0.36904
 C1750 C 0.30537 0.20141 0.37813
 H1751 H 0.31759 0.27411 0.38972
 H1752 H 0.26745 0.26073 0.42772
 H1753 H 0.34853 0.21741 0.40672
 H1754 H 0.26616 0.17080 0.40083
 H1755 H 0.23541 0.22757 0.38387
 H1756 H 0.31648 0.18371 0.36388
 C1757 C 0.73941 0.27172 0.39144
 C1758 C 0.72300 0.30294 0.40014
 C1759 C 0.70460 0.28528 0.42341
 C1760 C 0.72103 0.25398 0.41505
 C1761 C 0.67727 0.27850 0.40279
 C1762 C 0.69567 0.29620 0.37941
 C1763 C 0.71213 0.26492 0.37079
 C1764 C 0.69366 0.24708 0.39390
 H1765 H 0.76499 0.26880 0.38671
 H1766 H 0.73489 0.32620 0.40272
 H1767 H 0.73133 0.23660 0.43010
 H1768 H 0.65164 0.28134 0.40732
 H1769 H 0.68521 0.31408 0.36489
 H1770 H 0.68182 0.22383 0.39115
 C1771 C 0.23914 0.77327 0.89006
 C1772 C 0.22233 0.80417 0.89913
 C1773 C 0.20515 0.78612 0.92288
 C1774 C 0.22198 0.75516 0.91418
 C1775 C 0.17726 0.77863 0.90303
 C1776 C 0.19446 0.79671 0.87913
 C1777 C 0.21134 0.76580 0.87016
 C1778 C 0.19409 0.74757 0.89377
 H1779 H 0.26460 0.77092 0.88463
 H1780 H 0.23378 0.82770 0.90132
 H1781 H 0.23320 0.73802 0.92894
 H1782 H 0.15169 0.78076 0.90810
 H1783 H 0.18309 0.81425 0.86484
 H1784 H 0.18270 0.72406 0.89135
 C1785 C 0.30461 0.74889 0.10644
 C1786 C 0.27707 0.75596 0.08550
 C1787 C 0.29389 0.78684 0.07659
 C1788 C 0.32144 0.77986 0.09697
 C1789 C 0.27615 0.80523 0.09980
 C1790 C 0.25934 0.77442 0.10907
 C1791 C 0.28679 0.76745 0.12950
 C1792 C 0.30367 0.79827 0.12033
 H1793 H 0.31610 0.72549 0.10940
 H1794 H 0.26626 0.73850 0.07082
 H1795 H 0.34709 0.78203 0.09227
 H1796 H 0.26462 0.82867 0.09707
 H1797 H 0.23379 0.77206 0.11414
 H1798 H 0.31465 0.81613 0.13454
 C1799 C 0.80693 0.24745 0.60744
 C1800 C 0.77871 0.25487 0.58735
 C1801 C 0.79524 0.28586 0.57835
 C1802 C 0.82343 0.27857 0.59792
 C1803 C 0.77832 0.30389 0.60226
 C1804 C 0.76181 0.27298 0.61159
 C1805 C 0.78994 0.26568 0.63119
 C1806 C 0.80650 0.29664 0.62196
 H1807 H 0.81852 0.22401 0.60980
 H1808 H 0.76737 0.23770 0.57272
 H1809 H 0.84886 0.28090 0.59238
 H1810 H 0.76671 0.32735 0.60006
 H1811 H 0.73644 0.27054 0.61734
 H1812 H 0.81799 0.31424 0.63610
 C1813 C 0.19624 0.20228 0.62036
 C1814 C 0.17850 0.22043 0.59679
 C1815 C 0.20622 0.21361 0.57665
 C1816 C 0.22396 0.19551 0.60009
 C1817 C 0.22270 0.24466 0.58558
 C1818 C 0.19495 0.25159 0.60624
 C1819 C 0.21275 0.23331 0.62953
 C1820 C 0.24042 0.22648 0.60938
 H1821 H 0.18533 0.18440 0.63456
 H1822 H 0.15294 0.21792 0.59174
 H1823 H 0.23571 0.17217 0.59750
 H1824 H 0.23346 0.26209 0.57086
 H1825 H 0.18323 0.27491 0.60899
 H1826 H 0.26592 0.22910 0.61465
 C1827 C 0.69297 0.70327 0.12061
 C1828 C 0.67519 0.72099 0.09680
 C1829 C 0.70300 0.71404 0.07678
 C1830 C 0.72077 0.69636 0.10047
 C1831 C 0.71929 0.74530 0.08540
 C1832 C 0.69145 0.75238 0.10594
 C1833 C 0.70929 0.73451 0.12948
 C1834 C 0.73704 0.72755 0.10944
 H1835 H 0.68210 0.68552 0.13497
 H1836 H 0.64967 0.71826 0.09173
 H1837 H 0.73267 0.67306 0.09818
 H1838 H 0.73001 0.76258 0.07053
 H1839 H 0.67958 0.77566 0.10840
 H1840 H 0.76251 0.73038 0.11473
 C1841 C 0.20163 0.60421 0.23629
 C1842 C 0.17318 0.59833 0.25631
 C1843 C 0.15203 0.59162 0.23036
 C1844 C 0.18025 0.59728 0.21029
 C1845 C 0.14294 0.62693 0.22846
 C1846 C 0.16431 0.63387 0.25441
 C1847 C 0.19254 0.63944 0.23436
 C1848 C 0.17141 0.63283 0.20843
 H1849 H 0.22600 0.59496 0.23943
 H1850 H 0.17413 0.58444 0.27624
 H1851 H 0.18680 0.58198 0.19210
 H1852 H 0.11854 0.63612 0.22542
 H1853 H 0.15775 0.64921 0.27257
 H1854 H 0.17067 0.64717 0.18872
 C1855 C 0.70273 0.10365 0.73668
 C1856 C 0.67411 0.09776 0.75650
 C1857 C 0.65295 0.09193 0.73037
 C1858 C 0.68134 0.09761 0.71050
 C1859 C 0.64440 0.12740 0.72908
 C1860 C 0.66577 0.13346 0.75522
 C1861 C 0.69417 0.13905 0.73536
 C1862 C 0.67303 0.13331 0.70924
 H1863 H 0.72694 0.09397 0.73973
 H1864 H 0.67485 0.08343 0.77621
 H1865 H 0.68774 0.08262 0.69205
 H1866 H 0.62015 0.13700 0.72613
 H1867 H 0.65939 0.14850 0.77364
 H1868 H 0.67258 0.14808 0.68978
 C1869 C 0.79858 0.10170 0.26384
 C1870 C 0.82693 0.09605 0.24364
 C1871 C 0.84826 0.08916 0.26946
 C1872 C 0.82014 0.09457 0.28972
 C1873 C 0.85725 0.12449 0.27155
 C1874 C 0.83570 0.13160 0.24574
 C1875 C 0.80756 0.13694 0.26596
 C1876 C 0.82886 0.13015 0.29175
 H1877 H 0.77424 0.09240 0.26077
 H1878 H 0.82577 0.08250 0.22353
 H1879 H 0.81371 0.07913 0.30785
 H1880 H 0.88161 0.13378 0.27453
 H1881 H 0.84210 0.14710 0.22764
 H1882 H 0.82965 0.14434 0.31153
 C1883 C 0.29823 0.60316 0.76320
 C1884 C 0.32685 0.59780 0.74325
 C1885 C 0.34794 0.59104 0.76926
 C1886 C 0.31955 0.59617 0.78926
 C1887 C 0.35661 0.62643 0.77148
 C1888 C 0.33529 0.63341 0.74549
 C1889 C 0.30688 0.63847 0.76546
 C1890 C 0.32795 0.63181 0.79143
 H1891 H 0.27400 0.59366 0.75989
 H1892 H 0.32605 0.58428 0.72312
 H1893 H 0.31304 0.58064 0.80732
 H1894 H 0.38086 0.63591 0.77468
 H1895 H 0.34176 0.64902 0.72748
 H1896 H 0.32838 0.64596 0.81124
 C1897 C 0.33557 0.36660 0.75421
 C1898 C 0.35680 0.37318 0.72814
 C1899 C 0.34783 0.40854 0.72968
 C1900 C 0.32681 0.40219 0.75575
 C1901 C 0.31946 0.40272 0.70974
 C1902 C 0.32819 0.36713 0.70824
 C1903 C 0.30719 0.36089 0.73429
 C1904 C 0.29822 0.39617 0.73586
 H1905 H 0.34218 0.35147 0.77252
 H1906 H 0.38115 0.36388 0.72510
 H1907 H 0.32601 0.41631 0.77555
 H1908 H 0.31286 0.41779 0.69139
 H1909 H 0.32876 0.35254 0.68868
 H1910 H 0.27391 0.40554 0.73895
 C1911 C 0.83467 0.86678 0.25319
 C1912 C 0.85585 0.87324 0.22706
 C1913 C 0.84729 0.90870 0.22880
 C1914 C 0.82633 0.90246 0.25495
 C1915 C 0.81875 0.90334 0.20894
 C1916 C 0.82705 0.86763 0.20725
 C1917 C 0.80612 0.86150 0.23336
 C1918 C 0.79757 0.89687 0.23514
 H1919 H 0.84121 0.85148 0.27141
 H1920 H 0.88005 0.86359 0.22392
 H1921 H 0.82565 0.91629 0.27493
 H1922 H 0.81216 0.91857 0.19069
 H1923 H 0.82733 0.85314 0.18764
 H1924 H 0.77338 0.90650 0.23839
 C1925 C 0.66472 0.86656 0.74552
 C1926 C 0.64348 0.87336 0.77154
 C1927 C 0.65201 0.90878 0.76943
 C1928 C 0.67304 0.90221 0.74342
 C1929 C 0.68050 0.90364 0.78939
 C1930 C 0.67222 0.86799 0.79147
 C1931 C 0.69321 0.86152 0.76547
 C1932 C 0.70174 0.89686 0.76332
 H1933 H 0.65824 0.85103 0.72746
 H1934 H 0.61926 0.86385 0.77476
 H1935 H 0.67360 0.91598 0.72340
 H1936 H 0.68699 0.91914 0.80748
 H1937 H 0.67189 0.85375 0.81123
 H1938 H 0.72594 0.90644 0.76002
 C1939 C 0.16237 0.36365 0.24691
 C1940 C 0.14351 0.37189 0.27404
 C1941 C 0.15168 0.40717 0.26976
 C1942 C 0.17033 0.39914 0.24264
 C1943 C 0.18188 0.40315 0.28782
 C1944 C 0.17396 0.36765 0.29205
 C1945 C 0.19257 0.35972 0.26494
 C1946 C 0.20075 0.39491 0.26064
 H1947 H 0.15437 0.34713 0.23008
 H1948 H 0.11981 0.36232 0.27952
 H1949 H 0.16898 0.41183 0.22209
 H1950 H 0.18989 0.41961 0.30468
 H1951 H 0.17547 0.35453 0.31239
 H1952 H 0.22452 0.40430 0.25518
 C1953 C 0.08016 0.30134 0.82028
 C1954 C 0.05977 0.27532 0.83475
 C1955 C 0.07221 0.28623 0.86382
 C1956 C 0.09203 0.31240 0.84975
 C1957 C 0.09984 0.26282 0.86224
 C1958 C 0.08773 0.25174 0.83304
 C1959 C 0.10765 0.27771 0.81898
 C1960 C 0.11977 0.28880 0.84804
 H1961 H 0.07236 0.31683 0.80260
 H1962 H 0.03465 0.26982 0.82985
 H1963 H 0.09443 0.33737 0.85667
 H1964 H 0.10799 0.24730 0.87977
 H1965 H 0.08604 0.22683 0.82569
 H1966 H 0.14481 0.29443 0.85269
 C1967 C 0.58083 0.80278 0.32319
 C1968 C 0.55944 0.77662 0.33617
 C1969 C 0.57158 0.78555 0.36589
 C1970 C 0.59242 0.81185 0.35330
 C1971 C 0.59855 0.76144 0.36367
 C1972 C 0.58673 0.75234 0.33382
 C1973 C 0.60767 0.77846 0.32124
 C1974 C 0.61954 0.78757 0.35093
 H1975 H 0.57381 0.81946 0.30612
 H1976 H 0.53427 0.77213 0.33064
 H1977 H 0.59533 0.83632 0.36142
 H1978 H 0.60590 0.74473 0.38061
 H1979 H 0.58449 0.72794 0.32534
 H1980 H 0.64465 0.79205 0.35620
 C1981 C 0.58805 0.24606 0.16724
 C1982 C 0.59935 0.23487 0.13785
 C1983 C 0.57137 0.21187 0.13666
 C1984 C 0.55977 0.22289 0.16595
 C1985 C 0.59115 0.18538 0.15035
 C1986 C 0.61929 0.20858 0.15170
 C1987 C 0.60797 0.21979 0.18095
 C1988 C 0.58013 0.19656 0.18005
 H1989 H 0.58687 0.27098 0.17465
 H1990 H 0.60733 0.25033 0.12022
 H1991 H 0.53485 0.22876 0.17128
 H1992 H 0.59289 0.16042 0.14323
 H1993 H 0.64417 0.20267 0.14668
 H1994 H 0.57251 0.18114 0.19782
 C1995 C 0.08674 0.74722 0.66684
 C1996 C 0.09798 0.73691 0.63716
 C1997 C 0.07038 0.71348 0.63574
 C1998 C 0.05884 0.72362 0.66530
 C1999 C 0.09070 0.68701 0.64880
 C2000 C 0.11846 0.71063 0.65039
 C2001 C 0.10718 0.72096 0.67991
 C2002 C 0.07973 0.69730 0.67876
 H2003 H 0.08522 0.77193 0.67472
 H2004 H 0.10553 0.75290 0.61977
 H2005 H 0.03386 0.72895 0.67088
 H2006 H 0.09280 0.66224 0.64120
 H2007 H 0.14339 0.70527 0.64507
 H2008 H 0.07253 0.68135 0.69629
 C2009 C 0.88272 0.79282 0.65253
 C2010 C 0.91119 0.81563 0.65132
 C2011 C 0.93042 0.78904 0.63716
 C2012 C 0.90208 0.76646 0.63820
 C2013 C 0.94219 0.77737 0.66623
 C2014 C 0.92236 0.80376 0.68080
 C2015 C 0.89418 0.78093 0.68156
 C2016 C 0.91356 0.75461 0.66738
 H2017 H 0.85789 0.79929 0.64774
 H2018 H 0.90956 0.84079 0.64473
 H2019 H 0.89362 0.75141 0.62046
 H2020 H 0.96707 0.77102 0.67138
 H2021 H 0.93040 0.81876 0.69872
 H2022 H 0.91448 0.72955 0.67444
 C2023 C 0.41331 0.25262 0.16651
 C2024 C 0.40217 0.26285 0.13675
 C2025 C 0.42951 0.28661 0.13557
 C2026 C 0.44094 0.27654 0.16522
 C2027 C 0.40877 0.31281 0.14847
 C2028 C 0.38128 0.28886 0.14980
 C2029 C 0.39245 0.27861 0.17942
 C2030 C 0.41964 0.30259 0.17852
 H2031 H 0.41507 0.22791 0.17439
 H2032 H 0.39495 0.24680 0.11928
 H2033 H 0.46594 0.27152 0.17101
 H2034 H 0.40643 0.33757 0.14089
 H2035 H 0.35633 0.29389 0.14423
 H2036 H 0.42652 0.31859 0.19612
 C2037 C 0.41166 0.75041 0.33326
 C2038 C 0.39993 0.73954 0.36265
 C2039 C 0.42719 0.71567 0.36393
 C2040 C 0.43928 0.72639 0.33470
 C2041 C 0.40672 0.68982 0.35011
 C2042 C 0.37933 0.71385 0.34870
 C2043 C 0.39113 0.72470 0.31949
 C2044 C 0.41826 0.70067 0.32052
 H2045 H 0.41357 0.77527 0.32582
 H2046 H 0.39233 0.75518 0.38027
 H2047 H 0.46440 0.73149 0.32950
 H2048 H 0.40395 0.66487 0.35702
 H2049 H 0.35428 0.70866 0.35363
 H2050 H 0.42553 0.68504 0.30278
 C2051 C 0.91427 0.24853 0.83528
 C2052 C 0.90275 0.23921 0.86515
 C2053 C 0.92976 0.21510 0.86711
 C2054 C 0.94160 0.22426 0.83739
 C2055 C 0.90880 0.18887 0.85450
 C2056 C 0.88165 0.21316 0.85239
 C2057 C 0.89323 0.22247 0.82268
 C2058 C 0.92011 0.19817 0.82439
 H2059 H 0.91641 0.27299 0.82691
 H2060 H 0.89556 0.25580 0.88221
 H2061 H 0.96671 0.22881 0.83175
 H2062 H 0.90597 0.16435 0.86251
 H2063 H 0.85659 0.20865 0.85775
 H2064 H 0.92698 0.18163 0.80720
 C2065 C 0.52968 1.05802 0.64554
 C2066 C 0.53606 1.02915 0.66530
 C2067 C 0.57020 1.04097 0.67033
 C2068 C 0.56394 1.06989 0.65109
 C2069 C 0.58200 1.02173 0.64477
 C2070 C 0.54787 1.00987 0.63937
 C2071 C 0.54175 1.03873 0.62008
 C2072 C 0.57578 1.05056 0.62542
 H2073 H 0.50808 1.07300 0.64573
 H2074 H 0.51971 1.02026 0.68188
 H2075 H 0.57011 1.09496 0.65543
 H2076 H 0.60362 1.00677 0.64433
 H2077 H 0.54111 0.98508 0.63449
 H2078 H 0.59224 1.05951 0.60894
 C2079 C 0.02675 0.55710 1.14640
 C2080 C 0.03324 0.52817 1.16605
 C2081 C 0.06744 0.53989 1.17086
 C2082 C 0.06109 0.56884 1.15171
 C2083 C 0.07893 0.52069 1.14517
 C2084 C 0.04476 0.50891 1.14002
 C2085 C 0.03855 0.53782 1.12084
 C2086 C 0.07266 0.54955 1.12595
 H2087 H 0.00519 0.57214 1.14676
 H2088 H 0.01707 0.51929 1.18277
 H2089 H 0.06748 0.59383 1.15617
 H2090 H 0.10052 0.50568 1.14461
 H2091 H 0.03788 0.48415 1.13513
 H2092 H 0.08900 0.55851 1.10938
 C2093 C -0.07517 -0.05166 1.12514
 C2094 C -0.06359 -0.07089 1.15101
 C2095 C -0.07015 -0.04192 1.17008
 C2096 C -0.08167 -0.02279 1.14431
 C2097 C -0.03597 -0.03005 1.16544
 C2098 C -0.02929 -0.05897 1.14585
 C2099 C -0.04109 -0.03977 1.12018
 C2100 C -0.04751 -0.01088 1.13932
 H2101 H -0.09141 -0.06070 1.10849
 H2102 H -0.06977 -0.09596 1.15536
 H2103 H -0.10331 -0.00787 1.14355
 H2104 H -0.01984 -0.02108 1.18219
 H2105 H -0.00767 -0.07392 1.14634
 H2106 H -0.04074 0.01391 1.13444
 C2107 C 0.42604 0.44947 0.62589
 C2108 C 0.43808 0.43106 0.65207
 C2109 C 0.43076 0.46022 0.67067
 C2110 C 0.41877 0.47853 0.64460
 C2111 C 0.46462 0.47287 0.66587
 C2112 C 0.47207 0.44375 0.64674
 C2113 C 0.45981 0.46212 0.62077
 C2114 C 0.45262 0.49122 0.63943
 H2115 H 0.41005 0.43967 0.60939
 H2116 H 0.43253 0.40594 0.65684
 H2117 H 0.39676 0.49288 0.64361
 H2118 H 0.48049 0.48261 0.68247
 H2119 H 0.49406 0.42937 0.64748
 H2120 H 0.45874 0.51608 0.63416
 C2121 C 0.45302 0.50946 -0.13973
 C2122 C 0.41896 0.52142 -0.14523
 C2123 C 0.43085 0.54055 -0.17082
 C2124 C 0.46494 0.52865 -0.16566
 C2125 C 0.43709 0.56947 -0.15163
 C2126 C 0.42512 0.55026 -0.12596
 C2127 C 0.45911 0.53834 -0.12052
 C2128 C 0.47130 0.55754 -0.14598
 H2129 H 0.45974 0.48467 -0.13474
 H2130 H 0.39731 0.50653 -0.14485
 H2131 H 0.48128 0.51967 -0.18221
 H2132 H 0.43086 0.59449 -0.15618
 H2133 H 0.40864 0.55931 -0.10953
 H2134 H 0.49292 0.57248 -0.14614
 C2135 C -0.02651 1.05469 0.35230
 C2136 C -0.03437 1.02537 0.33356
 C2137 C -0.06794 1.03861 0.32826
 C2138 C -0.06021 1.06793 0.34650
 C2139 C -0.08044 1.02105 0.35451
 C2140 C -0.04690 1.00777 0.36015
 C2141 C -0.03931 1.03706 0.37843
 C2142 C -0.07279 1.05028 0.37283
 H2143 H -0.00425 1.06862 0.35154
 H2144 H -0.01860 1.01503 0.31721
 H2145 H -0.06541 1.09299 0.34114
 H2146 H -0.10273 1.00718 0.35548
 H2147 H -0.04128 0.98290 0.36585
 H2148 H -0.08869 1.06073 0.38905
 C2149 C 0.07297 0.44981 0.37477
 C2150 C 0.06132 0.43057 0.34899
 C2151 C 0.06786 0.45944 0.32983
 C2152 C 0.07944 0.47861 0.35553
 C2153 C 0.03372 0.47142 0.33451
 C2154 C 0.02704 0.44257 0.35416
 C2155 C 0.03892 0.46181 0.37974
 C2156 C 0.04534 0.49063 0.36055
 H2157 H 0.08923 0.44076 0.39142
 H2158 H 0.06758 0.40553 0.34458
 H2159 H 0.10112 0.49346 0.35616
 H2160 H 0.01762 0.48041 0.31772
 H2161 H 0.00539 0.42769 0.35374
 H2162 H 0.03860 0.51545 0.36539
 C2163 C 0.57357 -0.04967 -0.12581
 C2164 C 0.56166 -0.06869 -0.15163
 C2165 C 0.56787 -0.03961 -0.17064
 C2166 C 0.57971 -0.02067 -0.14489
 C2167 C 0.53375 -0.02780 -0.16552
 C2168 C 0.52742 -0.05686 -0.14602
 C2169 C 0.53955 -0.03785 -0.12040
 C2170 C 0.54562 -0.00881 -0.13943
 H2171 H 0.59006 -0.05884 -0.10939
 H2172 H 0.56791 -0.09367 -0.15630
 H2173 H 0.60134 -0.00575 -0.14436
 H2174 H 0.51740 -0.01872 -0.18207
 H2175 H 0.50582 -0.07183 -0.14634
 H2176 H 0.53887 0.01594 -0.13434
 C2177 C 0.61619 0.63863 -0.03356
 C2178 C 0.61783 0.66414 -0.00972
 C2179 C 0.65023 0.65117 -0.00016
 C2180 C 0.64925 0.62609 -0.02402
 C2181 C 0.63406 0.62795 0.02031
 C2182 C 0.60158 0.64084 0.01086
 C2183 C 0.60028 0.61548 -0.01275
 C2184 C 0.63288 0.60284 -0.00335
 H2185 H 0.60878 0.64289 -0.05580
 H2186 H 0.61163 0.68953 -0.01216
 H2187 H 0.66873 0.61949 -0.03863
 H2188 H 0.64112 0.62332 0.04261
 H2189 H 0.58186 0.64716 0.02534
 H2190 H 0.63922 0.57749 -0.00081
 C2191 C 0.10271 1.14113 0.50916
 C2192 C 0.13500 1.12839 0.51920
 C2193 C 0.15154 1.15117 0.49860
 C2194 C 0.11931 1.16397 0.48842
 C2195 C 0.15088 1.12562 0.47514
 C2196 C 0.13417 1.10281 0.49596
 C2197 C 0.10174 1.11531 0.48595
 C2198 C 0.11800 1.13801 0.46498
 H2199 H 0.08278 1.14777 0.52330
 H2200 H 0.14175 1.12426 0.54165
 H2201 H 0.11322 1.18933 0.48552
 H2202 H 0.17071 1.11888 0.46098
 H2203 H 0.14044 1.07751 0.49899
 H2204 H 0.11094 1.14182 0.44258
 C2205 C 0.13326 -0.10353 1.00277
 C2206 C 0.14974 -0.12690 1.02329
 C2207 C 0.15053 -0.15189 0.99936
 C2208 C 0.13419 -0.12857 0.97905
 C2209 C 0.11816 -0.16479 1.00902
 C2210 C 0.11676 -0.13937 1.03294
 C2211 C 0.10071 -0.11611 1.01227
 C2212 C 0.10177 -0.14138 0.98858
 H2213 H 0.13962 -0.07819 1.00027
 H2214 H 0.16946 -0.12054 1.03776
 H2215 H 0.14111 -0.12395 0.95674
 H2216 H 0.11199 -0.19018 1.01139
 H2217 H 0.10954 -0.14371 1.05520
 H2218 H 0.08192 -0.14759 0.97417
 C2219 C 0.63381 0.39641 0.50365
 C2220 C 0.65037 0.37312 0.52421
 C2221 C 0.65110 0.34805 0.50031
 C2222 C 0.63473 0.37131 0.47996
 C2223 C 0.61879 0.33514 0.51007
 C2224 C 0.61741 0.36065 0.53393
 C2225 C 0.60128 0.38385 0.51325
 C2226 C 0.60233 0.35849 0.48960
 H2227 H 0.64017 0.42174 0.50109
 H2228 H 0.66997 0.37975 0.53872
 H2229 H 0.64156 0.37595 0.45763
 H2230 H 0.61262 0.30975 0.51253
 H2231 H 0.61026 0.35636 0.55622
 H2232 H 0.58247 0.35219 0.47523
 C2233 C -0.13520 0.39794 0.49714
 C2234 C -0.15158 0.37467 0.47649
 C2235 C -0.15197 0.34940 0.50019
 C2236 C -0.13576 0.37262 0.52064
 C2237 C -0.11955 0.33688 0.49029
 C2238 C -0.11853 0.36257 0.46659
 C2239 C -0.10260 0.38573 0.48740
 C2240 C -0.10328 0.36016 0.51086
 H2241 H -0.14179 0.42320 0.49989
 H2242 H -0.17148 0.38096 0.46217
 H2243 H -0.14261 0.37691 0.54301
 H2244 H -0.11317 0.31156 0.48766
 H2245 H -0.11138 0.35858 0.44425
 H2246 H -0.08331 0.35394 0.52515
 C2247 C 0.38329 -0.13946 -0.03336
 C2248 C 0.38171 -0.16519 -0.00971
 C2249 C 0.34944 -0.15216 0.00008
 C2250 C 0.35040 -0.12684 -0.02357
 C2251 C 0.36595 -0.12925 0.02064
 C2252 C 0.39828 -0.14221 0.01097
 C2253 C 0.39952 -0.11662 -0.01245
 C2254 C 0.36706 -0.10390 -0.00281
 H2255 H 0.39047 -0.14355 -0.05567
 H2256 H 0.38771 -0.19060 -0.01236
 H2257 H 0.33069 -0.12014 -0.03796
 H2258 H 0.35908 -0.12487 0.04300
 H2259 H 0.41808 -0.14879 0.02532
 H2260 H 0.36087 -0.07855 -0.00004
 C2261 C 0.38396 1.13879 0.53262
 C2262 C 0.38258 1.16416 0.50864
 C2263 C 0.35021 1.15128 0.49892
 C2264 C 0.35096 1.12634 0.52291
 C2265 C 0.36651 1.12789 0.47871
 C2266 C 0.39894 1.14070 0.48830
 C2267 C 0.39998 1.11546 0.51205
 C2268 C 0.36742 1.10290 0.50249
 H2269 H 0.39116 1.14316 0.55490
 H2270 H 0.38879 1.18955 0.51097
 H2271 H 0.33122 1.12004 0.53734
 H2272 H 0.35959 1.12323 0.45639
 H2273 H 0.41879 1.14686 0.47392
 H2274 H 0.36099 1.07757 0.50004
 C2275 C -0.11876 0.63834 1.03365
 C2276 C -0.12015 0.66412 1.01002
 C2277 C -0.15239 0.65122 0.99998
 C2278 C -0.15163 0.62586 1.02361
 C2279 C -0.13583 0.62828 0.97952
 C2280 C -0.10353 0.64112 0.98943
 C2281 C -0.10247 0.61548 1.01282
 C2282 C -0.13491 0.60289 1.00294
 H2283 H -0.11170 0.64236 1.05602
 H2284 H -0.11410 0.68949 1.01275
 H2285 H -0.17143 0.61923 1.03786
 H2286 H -0.14260 0.62397 0.95711
 H2287 H -0.08364 0.64764 0.97522
 H2288 H -0.14115 0.57756 1.00010
 C2289 C 0.02452 0.60182 0.57370
 C2290 C 0.03578 0.62863 0.55397
 C2291 C 0.01011 0.65027 0.56642
 C2292 C -0.00124 0.62367 0.58621
 C2293 C -0.01364 0.64017 0.54349
 C2294 C 0.01207 0.61812 0.53098
 C2295 C 0.00086 0.59156 0.55082
 C2296 C -0.02503 0.61297 0.56310
 H2297 H 0.04012 0.58582 0.58611
 H2298 H 0.06078 0.63552 0.55020
 H2299 H -0.00668 0.62657 0.60906
 H2300 H -0.02915 0.65620 0.53103
 H2301 H 0.01757 0.61519 0.50813
 H2302 H -0.04997 0.60583 0.56681
 C2303 C 0.52494 0.09969 0.07453
 C2304 C 0.53669 0.12633 0.05487
 C2305 C 0.51123 0.14830 0.06716
 C2306 C 0.49938 0.12188 0.08689
 C2307 C 0.48751 0.13847 0.04408
 C2308 C 0.51303 0.11609 0.03173
 C2309 C 0.50132 0.08968 0.05151
 C2310 C 0.47562 0.11143 0.06364
 H2311 H 0.54025 0.08352 0.08706
 H2312 H 0.56179 0.13293 0.05131
 H2313 H 0.49383 0.12484 0.10972
 H2314 H 0.47228 0.15465 0.03151
 H2315 H 0.51864 0.11310 0.00891
 H2316 H 0.45055 0.10464 0.06720
 C2317 C -0.01261 0.11758 0.97101
 C2318 C 0.01305 0.13989 0.95880
 C2319 C -0.01078 0.15050 0.93610
 C2320 C -0.03639 0.12861 0.94824
 C2321 C 0.00055 0.12432 0.91585
 C2322 C 0.02441 0.11311 0.93872
 C2323 C -0.00142 0.09143 0.95070
 C2324 C -0.02515 0.10222 0.92806
 H2325 H -0.01802 0.11418 0.99382
 H2326 H 0.02858 0.15563 0.97151
 H2327 H -0.06137 0.13544 0.95217
 H2328 H 0.00591 0.12769 0.89303
 H2329 H 0.04936 0.10607 0.93484
 H2330 H -0.04077 0.08649 0.91541
 C2331 C 0.51852 0.62034 0.45718
 C2332 C 0.51632 0.63068 0.42569
 C2333 C 0.48507 0.64787 0.43232
 C2334 C 0.48725 0.63811 0.46358
 C2335 C 0.46593 0.61788 0.42512
 C2336 C 0.49717 0.60041 0.41854
 C2337 C 0.49926 0.59067 0.44969
 C2338 C 0.46820 0.60799 0.45641
 H2339 H 0.54031 0.62069 0.47037
 H2340 H 0.53598 0.64063 0.41289
 H2341 H 0.48284 0.65392 0.48193
 H2342 H 0.44382 0.61534 0.41261
 H2343 H 0.50151 0.58453 0.40022
 H2344 H 0.44859 0.59819 0.46933
 C2345 C 0.52684 0.89793 0.42745
 C2346 C 0.53786 0.87140 0.44764
 C2347 C 0.51236 0.84959 0.43514
 C2348 C 0.50126 0.87591 0.41488
 C2349 C 0.48830 0.86009 0.45762
 C2350 C 0.51385 0.88231 0.47019
 C2351 C 0.50289 0.90859 0.44988
 C2352 C 0.47717 0.88700 0.43754
 H2353 H 0.54260 0.91373 0.41505
 H2354 H 0.56279 0.86452 0.45181
 H2355 H 0.49613 0.87272 0.39198
 H2356 H 0.47263 0.84429 0.47009
 H2357 H 0.51904 0.88556 0.49308
 H2358 H 0.45227 0.89409 0.43341
 C2359 C 0.01228 0.40021 0.91980
 C2360 C 0.03903 0.38014 0.93302
 C2361 C 0.01618 0.35182 0.93457
 C2362 C -0.01059 0.37162 0.92134
 C2363 C 0.00573 0.36122 0.96454
 C2364 C 0.02845 0.38982 0.96297
 C2365 C 0.00180 0.40968 0.94964
 C2366 C -0.02115 0.38161 0.95151
 H2367 H 0.01463 0.41659 0.90152
 H2368 H 0.06414 0.37987 0.92607
 H2369 H -0.02656 0.36347 0.90411
 H2370 H 0.00346 0.34487 0.98283
 H2371 H 0.04447 0.39791 0.98019
 H2372 H -0.04599 0.38288 0.95911
 C2373 C 0.48708 0.38283 0.03109
 C2374 C 0.51294 0.36094 0.04366
 C2375 C 0.48925 0.35067 0.06654
 C2376 C 0.46344 0.37215 0.05402
 C2377 C 0.50043 0.37732 0.08636
 C2378 C 0.52415 0.38819 0.06331
 C2379 C 0.49812 0.40944 0.05097
 C2380 C 0.47453 0.39901 0.07377
 H2381 H 0.48157 0.38575 0.00822
 H2382 H 0.52856 0.34504 0.03124
 H2383 H 0.43849 0.36510 0.05019
 H2384 H 0.50587 0.37446 0.10924
 H2385 H 0.54904 0.39551 0.06708
 H2386 H 0.45883 0.41492 0.08613
 C2387 C -0.02517 0.90109 0.57532
 C2388 C -0.03755 0.87436 0.55604
 C2389 C -0.01179 0.85239 0.56792
 C2390 C 0.00067 0.87889 0.58728
 C2391 C 0.01128 0.86200 0.54433
 C2392 C -0.01452 0.88437 0.53238
 C2393 C -0.00218 0.91085 0.55179
 C2394 C 0.02379 0.88910 0.56351
 H2395 H -0.04006 0.91742 0.58804
 H2396 H -0.06276 0.86777 0.55303
 H2397 H 0.00687 0.87601 0.61001
 H2398 H 0.02612 0.84573 0.53153
 H2399 H -0.02080 0.88726 0.50967
 H2400 H 0.04896 0.89587 0.56652
 C2401 C 0.25870 0.29659 0.11004
 C2402 C 0.27109 0.33053 0.10484
 C2403 C 0.28963 0.31869 0.07890
 C2404 C 0.27728 0.28474 0.08374
 C2405 C 0.31881 0.31168 0.09766
 C2406 C 0.30016 0.32358 0.12371
 C2407 C 0.28780 0.28972 0.12887
 C2408 C 0.30641 0.27761 0.10303
 H2409 H 0.23386 0.29024 0.11522
 H2410 H 0.25652 0.35240 0.10570
 H2411 H 0.26776 0.26874 0.06713
 H2412 H 0.34391 0.31747 0.09299
 H2413 H 0.30975 0.33967 0.14023
 H2414 H 0.32101 0.25576 0.10243
 C2415 C 0.81030 0.77998 0.60529
 C2416 C 0.78156 0.78545 0.58515
 C2417 C 0.79253 0.81984 0.58014
 C2418 C 0.82129 0.81450 0.59980
 C2419 C 0.77256 0.83121 0.60541
 C2420 C 0.76154 0.79685 0.61076
 C2421 C 0.79026 0.79164 0.63043
 C2422 C 0.80124 0.82594 0.62515
 H2423 H 0.82589 0.75882 0.60541
 H2424 H 0.77338 0.76883 0.56848
 H2425 H 0.84622 0.82143 0.59568
 H2426 H 0.75701 0.85240 0.60551
 H2427 H 0.73686 0.78943 0.61535
 H2428 H 0.80948 0.84271 0.64170
 C2429 C 0.24077 0.70353 0.61084
 C2430 C 0.22875 0.66953 0.60533
 C2431 C 0.20988 0.68148 0.57956
 C2432 C 0.22184 0.71550 0.58473
 C2433 C 0.18078 0.68785 0.59849
 C2434 C 0.19974 0.67584 0.62435
 C2435 C 0.21172 0.70976 0.62981
 C2436 C 0.19277 0.72200 0.60416
 H2437 H 0.26555 0.71013 0.61601
 H2438 H 0.24358 0.64783 0.60587
 H2439 H 0.23103 0.73177 0.56821
 H2440 H 0.15578 0.68171 0.59375
 H2441 H 0.19048 0.65942 0.64073
 H2442 H 0.17789 0.74367 0.60382
 C2443 C 0.69303 0.22078 0.10505
 C2444 C 0.72189 0.21406 0.08541
 C2445 C 0.70958 0.18014 0.08033
 C2446 C 0.68068 0.18674 0.09945
 C2447 C 0.72859 0.16799 0.10594
 C2448 C 0.74094 0.20190 0.11139
 C2449 C 0.71211 0.20836 0.13055
 C2450 C 0.69979 0.17454 0.12517
 H2451 H 0.67836 0.24259 0.10485
 H2452 H 0.73104 0.23032 0.06886
 H2453 H 0.65553 0.18095 0.09496
 H2454 H 0.74324 0.14616 0.10640
 H2455 H 0.76582 0.20829 0.11639
 H2456 H 0.69056 0.15819 0.14162
 C2457 C 0.80640 0.22372 0.89762
 C2458 C 0.77717 0.21645 0.91663
 C2459 C 0.78999 0.18277 0.92201
 C2460 C 0.81923 0.18990 0.90350
 C2461 C 0.77192 0.17032 0.89598
 C2462 C 0.75906 0.20398 0.89027
 C2463 C 0.78826 0.21097 0.87172
 C2464 C 0.80108 0.17738 0.87739
 H2465 H 0.82066 0.24577 0.89812
 H2466 H 0.76724 0.23249 0.93299
 H2467 H 0.84429 0.18440 0.90867
 H2468 H 0.75771 0.14823 0.89526
 H2469 H 0.73419 0.20991 0.88473
 H2470 H 0.81110 0.16121 0.86116
 C2471 C 0.30642 0.72338 0.39545
 C2472 C 0.27756 0.71642 0.41499
 C2473 C 0.28986 0.68242 0.41978
 C2474 C 0.31875 0.68924 0.40073
 C2475 C 0.27088 0.67066 0.39402
 C2476 C 0.25853 0.70463 0.38889
 C2477 C 0.28736 0.71133 0.36980
 C2478 C 0.29968 0.67742 0.37487
 H2479 H 0.32110 0.74516 0.39590
 H2480 H 0.26838 0.73242 0.43172
 H2481 H 0.34384 0.68320 0.40526
 H2482 H 0.25625 0.64885 0.39336
 H2483 H 0.23364 0.71110 0.38397
 H2484 H 0.30895 0.66127 0.35829
 C2485 C 0.69499 0.77735 0.39598
 C2486 C 0.72434 0.78464 0.41491
 C2487 C 0.71157 0.81835 0.42025
 C2488 C 0.68222 0.81119 0.40181
 C2489 C 0.72949 0.83074 0.39416
 C2490 C 0.74230 0.79706 0.38848
 C2491 C 0.71297 0.79003 0.37000
 C2492 C 0.70022 0.82365 0.37563
 H2493 H 0.68073 0.75530 0.39658
 H2494 H 0.73437 0.76864 0.43129
 H2495 H 0.65719 0.81671 0.40701
 H2496 H 0.74371 0.85281 0.39336
 H2497 H 0.76713 0.79110 0.38291
 H2498 H 0.69011 0.83980 0.35939
 C2499 C 0.19188 0.27769 0.89512
 C2500 C 0.22064 0.28370 0.91510
 C2501 C 0.20909 0.31791 0.92010
 C2502 C 0.18030 0.31203 0.90059
 C2503 C 0.22868 0.32956 0.89470
 C2504 C 0.24028 0.29537 0.88936
 C2505 C 0.21154 0.28964 0.86984
 C2506 C 0.19997 0.32375 0.87511
 H2507 H 0.17667 0.25628 0.89515
 H2508 H 0.22923 0.26725 0.93177
 H2509 H 0.15527 0.31854 0.90480
 H2510 H 0.24384 0.35101 0.89446
 H2511 H 0.26507 0.28837 0.88467
 H2512 H 0.19131 0.34036 0.85858
 C2513 C 0.85350 0.38384 0.75399
 C2514 C 0.87640 0.40064 0.77473
 C2515 C 0.90180 0.40142 0.75117
 C2516 C 0.87895 0.38479 0.73064
 C2517 C 0.91481 0.36924 0.76125
 C2518 C 0.88899 0.36783 0.78480
 C2519 C 0.86620 0.35147 0.76391
 C2520 C 0.89189 0.35256 0.74059
 H2521 H 0.82815 0.39002 0.75107
 H2522 H 0.86968 0.42044 0.78894
 H2523 H 0.87464 0.39152 0.70822
 H2524 H 0.94023 0.36328 0.76405
 H2525 H 0.89300 0.36079 0.80718
 H2526 H 0.89854 0.33269 0.72640
 C2527 C 0.38605 0.86929 0.28258
 C2528 C 0.41115 0.87065 0.25842
 C2529 C 0.39844 0.90321 0.24911
 C2530 C 0.37377 0.90252 0.27331
 C2531 C 0.37463 0.88744 0.22890
 C2532 C 0.38728 0.85480 0.23810
 C2533 C 0.36230 0.85376 0.26204
 C2534 C 0.34990 0.88651 0.25290
 H2535 H 0.39060 0.86178 0.30475
 H2536 H 0.43651 0.86412 0.26049
 H2537 H 0.36772 0.92208 0.28802
 H2538 H 0.36970 0.89461 0.20669
 H2539 H 0.39314 0.83507 0.22348
 H2540 H 0.32457 0.89318 0.25073
 C2541 C 0.11118 0.86663 0.71632
 C2542 C 0.08554 0.86825 0.74002
 C2543 C 0.09838 0.90067 0.74957
 C2544 C 0.12360 0.89966 0.72587
 C2545 C 0.12153 0.88452 0.77018
 C2546 C 0.10876 0.85204 0.76075
 C2547 C 0.13426 0.85075 0.73728
 C2548 C 0.14680 0.88335 0.74668
 H2549 H 0.10704 0.85922 0.69406
 H2550 H 0.06015 0.86207 0.73747
 H2551 H 0.13007 0.91927 0.71134
 H2552 H 0.12597 0.89162 0.79248
 H2553 H 0.10241 0.83234 0.77524
 H2554 H 0.17214 0.88970 0.74935
 C2555 C 0.61248 0.36583 0.21705
 C2556 C 0.58687 0.36745 0.24077
 C2557 C 0.59980 0.39981 0.25039
 C2558 C 0.62499 0.39881 0.22666
 C2559 C 0.62292 0.38354 0.27094
 C2560 C 0.61007 0.35112 0.26144
 C2561 C 0.63554 0.34983 0.23795
 C2562 C 0.64816 0.38238 0.24742
 H2563 H 0.60828 0.35851 0.19478
 H2564 H 0.56146 0.36136 0.23822
 H2565 H 0.63148 0.41844 0.21217
 H2566 H 0.62739 0.39057 0.29326
 H2567 H 0.60367 0.33139 0.27589
 H2568 H 0.67352 0.38868 0.25008
 C2569 C 0.61204 0.63248 0.28384
 C2570 C 0.58595 0.63089 0.26046
 C2571 C 0.59909 0.59884 0.25027
 C2572 C 0.62476 0.59978 0.27366
 C2573 C 0.62157 0.61568 0.22960
 C2574 C 0.60848 0.64779 0.23965
 C2575 C 0.63444 0.64905 0.26279
 C2576 C 0.64728 0.61679 0.25277
 H2577 H 0.60824 0.63946 0.30624
 H2578 H 0.56052 0.63664 0.26344
 H2579 H 0.63182 0.58002 0.28781
 H2580 H 0.62567 0.60901 0.20715
 H2581 H 0.60152 0.66763 0.22552
 H2582 H 0.67265 0.61084 0.24968
 C2583 C 0.11183 0.13246 0.78249
 C2584 C 0.08624 0.13134 0.75866
 C2585 C 0.09888 0.09894 0.74884
 C2586 C 0.12404 0.09944 0.77268
 C2587 C 0.12220 0.11514 0.72851
 C2588 C 0.10963 0.14760 0.73820
 C2589 C 0.13509 0.14839 0.76180
 C2590 C 0.14741 0.11580 0.75214
 H2591 H 0.10770 0.13964 0.80480
 H2592 H 0.06089 0.13770 0.76116
 H2593 H 0.13034 0.07962 0.78706
 H2594 H 0.12663 0.10827 0.70616
 H2595 H 0.10344 0.16752 0.72387
 H2596 H 0.17270 0.10925 0.74953
 C2597 C 0.39196 0.14785 0.26023
 C2598 C 0.37935 0.11549 0.27015
 C2599 C 0.40262 0.09905 0.24992
 C2600 C 0.41531 0.13134 0.23987
 C2601 C 0.37744 0.09949 0.22608
 C2602 C 0.35413 0.11607 0.24652
 C2603 C 0.36648 0.14856 0.23662
 C2604 C 0.38970 0.13239 0.21604
 H2605 H 0.39821 0.16785 0.27442
 H2606 H 0.37491 0.10881 0.29255
 H2607 H 0.44068 0.13760 0.23733
 H2608 H 0.37103 0.07962 0.21182
 H2609 H 0.32883 0.10958 0.24918
 H2610 H 0.39386 0.13936 0.19368
 C2611 C 0.89021 0.63440 0.71732
 C2612 C 0.91574 0.63272 0.74117
 C2613 C 0.90273 0.60037 0.75072
 C2614 C 0.87762 0.60143 0.72686
 C2615 C 0.87956 0.61664 0.77115
 C2616 C 0.89250 0.64905 0.76174
 C2617 C 0.86710 0.65039 0.73812
 C2618 C 0.85441 0.61785 0.74750
 H2619 H 0.89447 0.64175 0.69507
 H2620 H 0.94117 0.63879 0.73876
 H2621 H 0.87115 0.58183 0.71232
 H2622 H 0.87502 0.60958 0.79344
 H2623 H 0.89886 0.66876 0.77622
 H2624 H 0.82904 0.61157 0.75003
 C2625 C 0.84914 0.77581 0.17386
 C2626 C 0.87604 0.78723 0.19350
 C2627 C 0.89760 0.76137 0.18125
 C2628 C 0.87095 0.74987 0.16152
 C2629 C 0.88747 0.73790 0.20438
 C2630 C 0.86549 0.76379 0.21667
 C2631 C 0.83886 0.75243 0.19691
 C2632 C 0.86021 0.72638 0.18484
 H2633 H 0.83310 0.79129 0.16136
 H2634 H 0.88298 0.81225 0.19709
 H2635 H 0.87374 0.74417 0.13870
 H2636 H 0.90324 0.72239 0.21711
 H2637 H 0.86261 0.76954 0.23948
 H2638 H 0.85299 0.70143 0.18133
 C2639 C 0.36265 0.22578 0.68630
 C2640 C 0.37346 0.25004 0.66368
 C2641 C 0.40022 0.26069 0.68365
 C2642 C 0.39001 0.23647 0.70611
 C2643 C 0.37882 0.28619 0.69667
 C2644 C 0.35185 0.27563 0.67676
 C2645 C 0.34148 0.25150 0.69915
 C2646 C 0.36819 0.26202 0.71919
 H2647 H 0.35528 0.20101 0.68209
 H2648 H 0.37620 0.24519 0.64069
 H2649 H 0.40594 0.22050 0.71819
 H2650 H 0.38596 0.31101 0.70093
 H2651 H 0.33592 0.29167 0.66474
 H2652 H 0.36539 0.26694 0.74216
 C2653 C 0.35047 0.72407 0.82444
 C2654 C 0.37703 0.71219 0.80475
 C2655 C 0.39906 0.73772 0.81686
 C2656 C 0.37271 0.74969 0.83663
 C2657 C 0.38908 0.76127 0.79372
 C2658 C 0.36665 0.73569 0.78155
 C2659 C 0.34033 0.74753 0.80137
 C2660 C 0.36213 0.77328 0.81332
 H2661 H 0.33433 0.70887 0.83705
 H2662 H 0.38363 0.68707 0.80125
 H2663 H 0.37579 0.75538 0.85943
 H2664 H 0.40520 0.77640 0.78104
 H2665 H 0.36351 0.72994 0.75876
 H2666 H 0.35531 0.79835 0.81679
 C2667 C 0.86843 0.23529 0.28079
 C2668 C 0.89081 0.26079 0.29324
 C2669 C 0.90131 0.23675 0.31581
 C2670 C 0.87936 0.21129 0.30340
 C2671 C 0.87508 0.24798 0.33608
 C2672 C 0.86397 0.27203 0.31333
 C2673 C 0.84224 0.24636 0.30110
 C2674 C 0.85291 0.22244 0.32360
 H2675 H 0.86507 0.23007 0.25793
 H2676 H 0.90644 0.27644 0.28057
 H2677 H 0.88606 0.18632 0.29926
 H2678 H 0.87833 0.25318 0.35896
 H2679 H 0.85697 0.29694 0.31738
 H2680 H 0.83709 0.20677 0.33608
 C2681 C 0.14954 0.25230 0.33085
 C2682 C 0.13189 0.28335 0.32395
 C2683 C 0.10192 0.26400 0.31708
 C2684 C 0.11929 0.23294 0.32402
 C2685 C 0.11150 0.26148 0.28582
 C2686 C 0.14161 0.28073 0.29266
 C2687 C 0.15912 0.24986 0.29970
 C2688 C 0.12948 0.23038 0.29252
 H2689 H 0.16557 0.24828 0.34917
 H2690 H 0.13441 0.30563 0.33616
 H2691 H 0.10952 0.21341 0.33708
 H2692 H 0.09554 0.26557 0.26747
 H2693 H 0.15123 0.30023 0.27949
 H2694 H 0.12916 0.20845 0.27959
 C2695 C 0.64959 0.77523 0.82352
 C2696 C 0.62270 0.78630 0.80374
 C2697 C 0.60122 0.76057 0.81628
 C2698 C 0.62792 0.74941 0.83612
 C2699 C 0.61148 0.73682 0.79343
 C2700 C 0.63337 0.76261 0.78083
 C2701 C 0.66003 0.75159 0.80073
 C2702 C 0.63879 0.72564 0.81310
 H2703 H 0.66550 0.79095 0.83589
 H2704 H 0.61564 0.81124 0.79989
 H2705 H 0.62511 0.74404 0.85900
 H2706 H 0.59553 0.72120 0.78103
 H2707 H 0.63625 0.76804 0.75796
 H2708 H 0.64609 0.70076 0.81691
 C2709 C 0.65106 0.22457 0.67561
 C2710 C 0.62445 0.21241 0.69512
 C2711 C 0.60245 0.23815 0.68327
 C2712 C 0.62882 0.25039 0.66368
 C2713 C 0.61236 0.26133 0.70670
 C2714 C 0.63477 0.23555 0.71861
 C2715 C 0.66113 0.24766 0.69897
 C2716 C 0.63934 0.27362 0.68729
 H2717 H 0.66725 0.20956 0.66285
 H2718 H 0.61781 0.18726 0.69829
 H2719 H 0.62575 0.25645 0.64096
 H2720 H 0.59621 0.27628 0.71953
 H2721 H 0.63785 0.22942 0.74133
 H2722 H 0.64616 0.29873 0.68412
 C2723 C 0.14713 0.72443 0.17577
 C2724 C 0.12066 0.71266 0.19563
 C2725 C 0.09848 0.73800 0.18333
 C2726 C 0.12473 0.74984 0.16340
 C2727 C 0.10841 0.76182 0.20623
 C2728 C 0.13100 0.73645 0.21859
 C2729 C 0.15721 0.74816 0.19861
 C2730 C 0.13525 0.77372 0.18648
 H2731 H 0.16330 0.70915 0.16327
 H2732 H 0.11418 0.68757 0.19937
 H2733 H 0.12155 0.75529 0.14056
 H2734 H 0.09225 0.77702 0.21881
 H2735 H 0.13421 0.73093 0.24142
 H2736 H 0.14195 0.79877 0.18277
   
