data_POSCAR
  _audit_creation_date              2014-09-24
  _audit_creation_method            'ToBaCCo'
  _symmetry_space_group_name_H-M    'P1'
  _symmetry_Int_Tables_number       1
  _symmetry_cell_setting            triclinic
  loop_
  _symmetry_equiv_pos_as_xyz
 x,y,z
_cell_length_a 59.2390
_cell_length_b 59.4141
_cell_length_c 59.1513
_cell_angle_alpha 89.411700
_cell_angle_beta 89.380000
_cell_angle_gamma 89.508300
loop_
  _atom_site_label
  _atom_site_type_symbol
  _atom_site_fract_x
  _atom_site_fract_y
  _atom_site_fract_z
C1 C 0.11379 -0.00020 0.22822
 C2 C 0.12872 0.02055 0.22941
 C3 C 0.14201 0.02093 0.24799
 C4 C 0.13930 0.00040 0.26386
 C5 C 0.13001 -0.02029 0.22981
 C6 C 0.14331 -0.02003 0.24846
 C7 C 0.10038 -0.00051 0.25054
 C8 C 0.11380 -0.00022 0.26918
 H9 H 0.12810 0.03427 0.21712
 H10 H 0.15025 0.00069 0.27899
 H11 H 0.13007 -0.03415 0.21794
 H12 H 0.08207 -0.00112 0.25153
 C13 C 0.38854 -0.00029 0.73270
 C14 C 0.37256 -0.02033 0.73366
 C15 C 0.35889 -0.02063 0.75231
 C16 C 0.36243 -0.00063 0.76837
 C17 C 0.37315 0.02048 0.73434
 C18 C 0.35952 0.02041 0.75307
 C19 C 0.40092 -0.00110 0.75376
 C20 C 0.38650 -0.00125 0.77338
 H21 H 0.37281 -0.03373 0.72127
 H22 H 0.35114 -0.00084 0.78352
 H23 H 0.37422 0.03475 0.72273
 H24 H 0.41921 -0.00029 0.75466
 C25 C 0.88537 0.50089 0.23031
 C26 C 0.86954 0.48084 0.23213
 C27 C 0.85625 0.48088 0.25101
 C28 C 0.85989 0.50121 0.26654
 C29 C 0.87007 0.52167 0.23197
 C30 C 0.85683 0.52196 0.25095
 C31 C 0.89881 0.50051 0.25233
 C32 C 0.88541 0.50074 0.27129
 H33 H 0.86958 0.46718 0.22004
 H34 H 0.84892 0.50129 0.28190
 H35 H 0.87103 0.53580 0.22018
 H36 H 0.91713 0.50097 0.25288
 C37 C 0.61504 0.49753 0.72913
 C38 C 0.63031 0.51803 0.73013
 C39 C 0.64361 0.51839 0.74871
 C40 C 0.64058 0.49802 0.76474
 C41 C 0.63093 0.47718 0.73087
 C42 C 0.64424 0.47738 0.74952
 C43 C 0.60165 0.49762 0.75146
 C44 C 0.61508 0.49786 0.77008
 H45 H 0.62973 0.53177 0.71785
 H46 H 0.65156 0.49826 0.77986
 H47 H 0.63072 0.46322 0.71915
 H48 H 0.58333 0.49728 0.75246
 C49 C 0.22818 0.11280 1.00102
 C50 C 0.22892 0.12771 1.02185
 C51 C 0.24724 0.14131 1.02235
 C52 C 0.26329 0.13892 1.00187
 C53 C 0.22965 0.12902 0.98082
 C54 C 0.24803 0.14264 0.98124
 C55 C 0.25069 0.09987 1.00090
 C56 C 0.26903 0.11362 1.00132
 H57 H 0.21656 0.12685 1.03555
 H58 H 0.27820 0.15013 1.00227
 H59 H 0.21792 0.12888 0.96682
 H60 H 0.25200 0.08164 1.00028
 C61 C 0.72900 0.38525 0.99592
 C62 C 0.73024 0.37021 0.97672
 C63 C 0.74994 0.35613 0.97667
 C64 C 0.76479 0.35971 0.99599
 C65 C 0.73046 0.37083 1.01589
 C66 C 0.75024 0.35677 1.01604
 C67 C 0.74995 0.39803 0.99526
 C68 C 0.76976 0.38385 0.99532
 H69 H 0.71828 0.37057 0.96287
 H70 H 0.78004 0.34861 0.99596
 H71 H 0.71905 0.37213 1.03037
 H72 H 0.75066 0.41630 0.99578
 C73 C 0.22992 0.88954 0.49919
 C74 C 0.23179 0.87357 0.47921
 C75 C 0.25075 0.86050 0.47930
 C76 C 0.26629 0.86448 0.49962
 C77 C 0.23179 0.87450 0.52022
 C78 C 0.25084 0.86148 0.52058
 C79 C 0.25183 0.90316 0.49854
 C80 C 0.27088 0.88998 0.49883
 H81 H 0.21967 0.87336 0.46554
 H82 H 0.28171 0.85369 0.49976
 H83 H 0.22001 0.87539 0.53441
 H84 H 0.25225 0.92143 0.49873
 C85 C 0.72889 0.61320 0.49995
 C86 C 0.72978 0.62794 0.52090
 C87 C 0.74814 0.64147 0.52143
 C88 C 0.76409 0.63918 0.50087
 C89 C 0.73032 0.62956 0.47988
 C90 C 0.74876 0.64311 0.48034
 C91 C 0.75133 0.60018 0.49964
 C92 C 0.76974 0.61386 0.50010
 H93 H 0.71744 0.62706 0.53462
 H94 H 0.77905 0.65033 0.50130
 H95 H 0.71849 0.62963 0.46596
 H96 H 0.75258 0.58195 0.49891
 C97 C 0.00166 0.22622 0.11240
 C98 C 0.02215 0.22724 0.12777
 C99 C 0.02245 0.24577 0.14106
 C100 C 0.00210 0.26174 0.13791
 C101 C -0.01883 0.22802 0.12825
 C102 C -0.01864 0.24662 0.14154
 C103 C 0.00188 0.24841 0.09895
 C104 C 0.00208 0.26698 0.11236
 H105 H 0.03580 0.21489 0.12742
 H106 H 0.00232 0.27683 0.14886
 H107 H -0.03287 0.21636 0.12804
 H108 H 0.00146 0.24937 0.08060
 C109 C -0.00326 0.73159 0.38659
 C110 C -0.02199 0.73309 0.37116
 C111 C -0.02161 0.75268 0.35708
 C112 C -0.00243 0.76740 0.36087
 C113 C 0.01804 0.73320 0.37179
 C114 C 0.01859 0.75202 0.35838
 C115 C -0.00386 0.75363 0.39999
 C116 C -0.00334 0.77243 0.38642
 H117 H -0.03593 0.72128 0.37129
 H118 H -0.00209 0.78261 0.34977
 H119 H 0.03218 0.72148 0.37309
 H120 H -0.00359 0.75430 0.41833
 C121 C 0.50005 0.23071 0.88779
 C122 C 0.48005 0.23267 0.87186
 C123 C 0.48038 0.25144 0.85852
 C124 C 0.50091 0.26670 0.86221
 C125 C 0.52100 0.23214 0.87254
 C126 C 0.52155 0.25100 0.85925
 C127 C 0.49983 0.25267 0.90121
 C128 C 0.50033 0.27151 0.88775
 H129 H 0.46621 0.22076 0.87187
 H130 H 0.50121 0.28197 0.85120
 H131 H 0.53501 0.22025 0.87351
 H132 H 0.50015 0.25327 0.91956
 C133 C 0.49990 0.72870 0.61262
 C134 C 0.52027 0.72928 0.62817
 C135 C 0.52083 0.74775 0.64151
 C136 C 0.50083 0.76413 0.63823
 C137 C 0.47931 0.73086 0.62829
 C138 C 0.47976 0.74942 0.64165
 C139 C 0.50068 0.75092 0.59921
 C140 C 0.50114 0.76945 0.61269
 H141 H 0.53371 0.71670 0.62786
 H142 H 0.50125 0.77917 0.64923
 H143 H 0.46512 0.71939 0.62804
 H144 H 0.50050 0.75193 0.58087
 C145 C 0.88654 1.00021 0.77212
 C146 C 0.87069 1.01888 0.77085
 C147 C 0.85617 1.01794 0.75175
 C148 C 0.86005 0.99844 0.73737
 C149 C 0.87217 0.97896 0.77171
 C150 C 0.85832 0.97796 0.75354
 C151 C 0.89937 1.00033 0.74942
 C152 C 0.88541 0.99941 0.73119
 H153 H 0.87101 1.03319 0.78216
 H154 H 0.84867 0.99760 0.72258
 H155 H 0.87342 0.96549 0.78424
 H156 H 0.91763 1.00123 0.74790
 C157 C 0.38743 0.50134 0.27315
 C158 C 0.37131 0.52145 0.27089
 C159 C 0.35780 0.52045 0.25242
 C160 C 0.36152 0.49933 0.23789
 C161 C 0.37236 0.48063 0.27305
 C162 C 0.35887 0.47951 0.25466
 C163 C 0.40058 0.50060 0.25071
 C164 C 0.38696 0.49958 0.23227
 H165 H 0.37145 0.53580 0.28214
 H166 H 0.35040 0.49845 0.22293
 H167 H 0.37314 0.46738 0.28584
 H168 H 0.41888 0.50121 0.24948
 C169 C 0.61305 1.00361 0.26977
 C170 C 0.62763 0.98230 0.26759
 C171 C 0.64093 0.98213 0.24861
 C172 C 0.63856 1.00347 0.23364
 C173 C 0.62863 1.02218 0.26860
 C174 C 0.64259 1.02220 0.24885
 C175 C 0.59958 1.00483 0.24772
 C176 C 0.61302 1.00467 0.22875
 H177 H 0.62631 0.96797 0.27910
 H178 H 0.64957 1.00344 0.21829
 H179 H 0.62864 1.03582 0.28075
 H180 H 0.58126 1.00455 0.24714
 C181 C 0.11271 0.50069 0.76879
 C182 C 0.12775 0.47974 0.76694
 C183 C 0.14114 0.47957 0.74805
 C184 C 0.13846 0.50056 0.73275
 C185 C 0.12882 0.52056 0.76739
 C186 C 0.14225 0.52060 0.74860
 C187 C 0.09945 0.50158 0.74666
 C188 C 0.11299 0.50146 0.72781
 H189 H 0.12665 0.46551 0.77860
 H190 H 0.14953 0.50057 0.71747
 H191 H 0.12884 0.53405 0.77967
 H192 H 0.08113 0.50138 0.74596
 C193 C 0.77133 0.88898 0.00122
 C194 C 0.76886 0.87328 0.02173
 C195 C 0.75041 0.85978 0.02082
 C196 C 0.73611 0.86309 -0.00055
 C197 C 0.77139 0.87357 -0.01926
 C198 C 0.75302 0.86008 -0.02024
 C199 C 0.74897 0.90207 0.00004
 C200 C 0.73055 0.88845 -0.00086
 H201 H 0.78003 0.87360 0.03618
 H202 H 0.72114 0.85198 -0.00134
 H203 H 0.78435 0.87399 -0.03242
 H204 H 0.74775 0.92032 0.00042
 C205 C 0.27212 0.38911 0.50237
 C206 C 0.26957 0.37332 0.52279
 C207 C 0.25112 0.35983 0.52176
 C208 C 0.23689 0.36325 0.50035
 C209 C 0.27225 0.37379 0.48181
 C210 C 0.25387 0.36031 0.48071
 C211 C 0.24978 0.40222 0.50116
 C212 C 0.23136 0.38862 0.50013
 H213 H 0.28075 0.37349 0.53724
 H214 H 0.22192 0.35216 0.49946
 H215 H 0.28524 0.37428 0.46869
 H216 H 0.24858 0.42047 0.50149
 C217 C 0.26747 0.60839 0.00095
 C218 C 0.26603 0.62408 -0.01963
 C219 C 0.24734 0.63761 -0.01964
 C220 C 0.23176 0.63440 0.00119
 C221 C 0.26599 0.62381 0.02139
 C222 C 0.24740 0.63738 0.02164
 C223 C 0.24521 0.59535 0.00116
 C224 C 0.22651 0.60902 0.00123
 H225 H 0.27784 0.62333 -0.03381
 H226 H 0.21662 0.64558 0.00135
 H227 H 0.27825 0.62349 0.03494
 H228 H 0.24432 0.57712 0.00042
 C229 C 0.76857 0.11333 0.49725
 C230 C 0.76700 0.12780 0.47733
 C231 C 0.74724 0.14190 0.47736
 C232 C 0.73281 0.13891 0.49749
 C233 C 0.76747 0.12831 0.51649
 C234 C 0.74780 0.14242 0.51672
 C235 C 0.74762 0.10058 0.49801
 C236 C 0.72782 0.11477 0.49812
 H237 H 0.77838 0.12660 0.46281
 H238 H 0.71757 0.15002 0.49765
 H239 H 0.77953 0.12792 0.53026
 H240 H 0.74688 0.08231 0.49745
 C241 C 1.00085 0.76977 0.88986
 C242 C 1.02088 0.76819 0.87341
 C243 C 1.02003 0.75007 0.85951
 C244 C 0.99915 0.73516 0.86321
 C245 C 0.97994 0.76959 0.87503
 C246 C 0.97898 0.75154 0.86114
 C247 C 1.00063 0.74716 0.90259
 C248 C 0.99976 0.72906 0.88857
 H249 H 1.03508 0.77965 0.87359
 H250 H 0.99838 0.72047 0.85177
 H251 H 0.96654 0.78218 0.87607
 H252 H 1.00143 0.74559 0.92088
 C253 C 0.50276 0.27241 0.38907
 C254 C 0.52271 0.27041 0.37256
 C255 C 0.52168 0.25202 0.35902
 C256 C 0.50072 0.23731 0.36310
 C257 C 0.48177 0.27207 0.37434
 C258 C 0.48064 0.25377 0.36081
 C259 C 0.50246 0.25004 0.40221
 C260 C 0.50142 0.23169 0.38855
 H261 H 0.53698 0.28179 0.37244
 H262 H 0.49980 0.22240 0.35196
 H263 H 0.46845 0.28475 0.37522
 H264 H 0.50340 0.24881 0.42051
 C265 C 1.00203 0.26981 0.60936
 C266 C 0.98122 0.26792 0.62475
 C267 C 0.98126 0.24913 0.63817
 C268 C 1.00229 0.23397 0.63518
 C269 C 1.02217 0.26851 0.62518
 C270 C 1.02241 0.24983 0.63865
 C271 C 1.00277 0.24777 0.59608
 C272 C 1.00284 0.22901 0.60966
 H273 H 0.96688 0.27941 0.62378
 H274 H 1.00247 0.21877 0.64628
 H275 H 1.03559 0.28089 0.62514
 H276 H 1.00215 0.24704 0.57776
 C277 C 0.49967 0.76908 0.11101
 C278 C 0.47883 0.76684 0.12632
 C279 C 0.47909 0.74803 0.13968
 C280 C 0.50036 0.73318 0.13674
 C281 C 0.51975 0.76803 0.12691
 C282 C 0.52023 0.74933 0.14034
 C283 C 0.50079 0.74709 0.09768
 C284 C 0.50110 0.72830 0.11120
 H285 H 0.46435 0.77818 0.12537
 H286 H 0.50072 0.71795 0.14779
 H287 H 0.53302 0.78058 0.12691
 H288 H 0.50032 0.74640 0.07934
 O289 O -0.00962 0.98408 0.93598
 O290 O 0.02865 0.99480 0.93576
 O291 O -0.01284 0.93505 0.99032
 O292 O -0.00680 0.93358 1.02726
 O293 O -0.06306 0.98916 0.98598
 O294 O -0.06264 1.02771 0.99503
 O295 O 0.04403 0.99450 1.04972
 O296 O 0.04630 0.95906 1.03450
 O297 O 0.05143 1.04070 0.99578
 O298 O 0.03602 1.04494 0.96035
 O299 O -0.00211 1.04904 1.04190
 O300 O -0.03835 1.03156 1.04821
 O301 O 0.01288 1.01330 1.06272
 O302 O -0.02816 1.00314 1.06317
 O303 O 0.01606 1.06184 1.01028
 O304 O 0.00491 1.06105 0.96942
 O305 O 0.06410 1.00973 1.01494
 O306 O 0.06365 0.97129 0.99973
 O307 O -0.04054 1.00342 0.94875
 O308 O -0.04495 1.03945 0.96688
 O309 O -0.05056 0.95781 1.00459
 O310 O -0.03168 0.95466 1.04173
 O311 O 0.00433 0.94765 0.95798
 O312 O 0.04246 0.96484 0.95811
 Zr313 Zr 0.01122 0.98163 0.96450
 O314 O 0.03245 1.00216 0.98356
 Zr315 Zr -0.01621 0.96379 1.01057
 O316 O 0.00466 0.98280 1.03149
 Zr317 Zr -0.03425 1.00939 0.98311
 O318 O -0.01484 1.03051 1.00340
 Zr319 Zr 0.03623 0.98805 1.01595
 O320 O 0.01641 0.96630 0.99634
 Zr321 Zr 0.01751 1.03374 0.98898
 O322 O -0.00264 1.01433 0.96739
 Zr323 Zr -0.00924 1.01521 1.03507
 O324 O -0.03143 0.99545 1.01584
 O325 O -0.02090 0.97731 0.97848
 O326 O 0.02280 1.02019 1.02115
 C327 C -0.02887 0.99372 0.93319
 C328 C -0.00437 0.93215 0.97049
 C329 C -0.06604 0.96984 0.99531
 C330 C 0.03255 1.00444 1.06525
 C331 C 0.06679 1.02927 1.00595
 C332 C 0.00755 1.06447 1.03010
 H333 H 0.04714 1.00365 0.97558
 H334 H -0.02269 1.04518 1.00480
 H335 H -0.03059 0.96780 0.96904
 H336 H 0.00633 0.97489 1.04617
 H337 H 0.04289 0.94592 1.02499
 H338 H 0.00726 0.93674 1.03544
 H339 H -0.00845 1.06734 0.97739
 H340 H -0.03293 1.04358 0.95589
 H341 H 0.07681 0.97162 1.00994
 H342 H 0.04097 0.95494 0.94483
 H343 H -0.04351 1.04260 1.03671
 H344 H -0.06514 1.02287 1.01091
 H345 H 0.02818 0.98368 0.92337
 H346 H 0.03197 1.03485 0.94786
 H347 H -0.04366 0.96599 1.04478
 H348 H -0.02052 0.98944 1.06902
 O349 O 0.49030 0.48627 0.43744
 O350 O 0.52845 0.49739 0.43711
 O351 O 0.48782 0.43670 0.49124
 O352 O 0.49406 0.43493 0.52817
 O353 O 0.43708 0.49040 0.48774
 O354 O 0.43720 0.52887 0.49717
 O355 O 0.54443 0.49603 0.55098
 O356 O 0.54693 0.46082 0.53543
 O357 O 0.55118 0.54282 0.49740
 O358 O 0.53552 0.54736 0.46217
 O359 O 0.49770 0.55035 0.54391
 O360 O 0.46174 0.53243 0.55029
 O361 O 0.51320 0.51444 0.56435
 O362 O 0.47225 0.50398 0.56490
 O363 O 0.51561 0.56358 0.51231
 O364 O 0.50432 0.56305 0.47151
 O365 O 0.56421 0.51177 0.51617
 O366 O 0.56396 0.47348 0.50066
 O367 O 0.45927 0.50522 0.45054
 O368 O 0.45462 0.54104 0.46904
 O369 O 0.44995 0.45897 0.50596
 O370 O 0.46902 0.45562 0.54295
 O371 O 0.50470 0.44981 0.45896
 O372 O 0.54266 0.46732 0.45908
 Zr373 Zr 0.51131 0.48377 0.46581
 O374 O 0.53244 0.50428 0.48496
 Zr375 Zr 0.48428 0.46521 0.51183
 O376 O 0.50507 0.48422 0.53283
 Zr377 Zr 0.46569 0.51092 0.48493
 O378 O 0.48501 0.53201 0.50532
 Zr379 Zr 0.53651 0.48988 0.51719
 O380 O 0.51679 0.46816 0.49746
 Zr381 Zr 0.51727 0.53568 0.49078
 O382 O 0.49717 0.51630 0.46909
 Zr383 Zr 0.49093 0.51648 0.53682
 O384 O 0.46881 0.49669 0.51750
 O385 O 0.47930 0.47901 0.47990
 O386 O 0.52285 0.52187 0.52280
 C387 C 0.47094 0.49575 0.43483
 C388 C 0.49622 0.43409 0.47134
 C389 C 0.43431 0.47095 0.49688
 C390 C 0.53294 0.50566 0.56669
 C391 C 0.56671 0.53138 0.50730
 C392 C 0.50711 0.56599 0.53217
 H393 H 0.54708 0.50597 0.47691
 H394 H 0.47703 0.54659 0.50690
 H395 H 0.46965 0.46950 0.47041
 H396 H 0.50687 0.47617 0.54742
 H397 H 0.54357 0.44774 0.52583
 H398 H 0.50809 0.43816 0.53638
 H399 H 0.49091 0.56910 0.47957
 H400 H 0.46654 0.54536 0.45801
 H401 H 0.57719 0.47381 0.51080
 H402 H 0.54121 0.45757 0.44568
 H403 H 0.45635 0.54345 0.53889
 H404 H 0.43480 0.52382 0.51301
 H405 H 0.52803 0.48640 0.42461
 H406 H 0.53158 0.53730 0.44962
 H407 H 0.45699 0.46684 0.54619
 H408 H 0.48000 0.49025 0.57053
 O409 O 0.45347 -0.04508 0.49877
 O410 O 0.47210 -0.04889 0.46340
 O411 O 0.50839 -0.04760 0.54605
 O412 O 0.54026 -0.02881 0.55195
 O413 O 0.45731 0.00453 0.55161
 O414 O 0.45001 0.03841 0.53165
 O415 O 0.56389 0.01545 0.48512
 O416 O 0.56702 -0.02063 0.49944
 O417 O 0.51167 0.01433 0.43686
 O418 O 0.47540 0.00075 0.43620
 O419 O 0.51180 0.06447 0.48629
 O420 O 0.50107 0.06612 0.52616
 O421 O 0.54834 0.04633 0.50196
 O422 O 0.52845 0.05139 0.53915
 O423 O 0.49475 0.04930 0.45578
 O424 O 0.45835 0.02776 0.45325
 O425 O 0.54438 -0.00036 0.45077
 O426 O 0.54737 -0.03777 0.46897
 O427 O 0.43775 -0.01401 0.51513
 O428 O 0.43540 0.02490 0.50310
 O429 O 0.48963 -0.01093 0.56562
 O430 O 0.52856 0.00323 0.56384
 O431 O 0.49035 -0.06291 0.51611
 O432 O 0.50714 -0.06163 0.47724
 Zr433 Zr 0.48735 -0.03599 0.49286
 O434 O 0.50610 -0.01561 0.47034
 Zr435 Zr 0.51152 -0.01325 0.53751
 O436 O 0.53190 0.00735 0.51669
 Zr437 Zr 0.46438 0.00927 0.51697
 O438 O 0.48272 0.03137 0.49578
 Zr439 Zr 0.53706 -0.00750 0.48499
 O440 O 0.51918 -0.02963 0.50696
 Zr441 Zr 0.48982 0.01540 0.46500
 O442 O 0.46950 -0.00598 0.48537
 Zr443 Zr 0.51462 0.03757 0.50955
 O444 O 0.49500 0.01786 0.53234
 O445 O 0.48046 -0.02115 0.52393
 O446 O 0.52126 0.02329 0.47815
 C447 C 0.43669 -0.03401 0.50713
 C448 C 0.49961 -0.06419 0.53562
 C449 C 0.46947 -0.00318 0.56781
 C450 C 0.56490 0.03559 0.49274
 C451 C 0.53220 0.00761 0.43472
 C452 C 0.50352 0.06574 0.46636
 H453 H 0.50828 -0.02373 0.45593
 H454 H 0.47391 0.04540 0.49362
 H455 H 0.47130 -0.03088 0.53407
 H456 H 0.54643 0.00993 0.52427
 H457 H 0.56291 -0.03503 0.50694
 H458 H 0.55338 -0.02440 0.54249
 H459 H 0.45445 0.04147 0.46185
 H460 H 0.43301 0.01795 0.48819
 H461 H 0.56227 -0.03519 0.46163
 H462 H 0.50016 -0.07648 0.48023
 H463 H 0.48598 0.06922 0.51981
 H464 H 0.46201 0.04525 0.54078
 H465 H 0.46677 -0.06440 0.46660
 H466 H 0.46733 -0.01279 0.44167
 H467 H 0.51999 0.01724 0.56704
 H468 H 0.54201 0.04241 0.54311
 O469 O -0.04725 0.50054 1.04845
 O470 O -0.05331 0.53486 1.02896
 O471 O -0.05001 0.45148 0.99506
 O472 O -0.03126 0.44378 0.96313
 O473 O 0.00403 0.44920 1.04437
 O474 O 0.03786 0.46981 1.04827
 O475 O 0.00836 0.51070 0.93423
 O476 O -0.02725 0.49563 0.93393
 O477 O 0.00826 0.56086 0.98389
 O478 O -0.00485 0.56321 1.02083
 O479 O 0.06005 0.51273 0.98403
 O480 O 0.06361 0.47380 0.99537
 O481 O 0.04077 0.49569 0.94865
 O482 O 0.04809 0.45935 0.96961
 O483 O 0.04426 0.54345 1.00078
 O484 O 0.02315 0.54756 1.03762
 O485 O -0.00755 0.54534 0.95286
 O486 O -0.04468 0.52665 0.95332
 O487 O -0.01475 0.48589 1.06301
 O488 O 0.02372 0.49862 1.06265
 O489 O -0.01210 0.43344 1.01365
 O490 O 0.00136 0.43376 0.97368
 O491 O -0.06598 0.48159 1.01287
 O492 O -0.06664 0.51984 0.99504
 Zr493 Zr -0.03971 0.50534 1.01387
 O494 O -0.02089 0.52744 0.99310
 Zr495 Zr -0.01589 0.46027 0.99037
 O496 O 0.00305 0.48062 0.96797
 Zr497 Zr 0.00750 0.48330 1.03518
 O498 O 0.02805 0.50407 1.01476
 Zr499 Zr -0.01337 0.51161 0.96238
 O500 O -0.03387 0.48998 0.98236
 Zr501 Zr 0.01059 0.53408 1.00726
 O502 O -0.00926 0.51420 1.02962
 Zr503 Zr 0.03370 0.48912 0.98312
 O504 O 0.01568 0.46680 1.00482
 O505 O -0.02332 0.47504 1.02120
 O506 O 0.01785 0.51974 0.97599
 C507 C -0.03509 0.49331 1.06487
 C508 C -0.06685 0.46192 1.00411
 C509 C -0.00371 0.43239 1.03355
 C510 C 0.02885 0.50376 0.93239
 C511 C 0.00073 0.56192 0.96364
 C512 C 0.06096 0.53278 0.99183
 H513 H -0.02961 0.54155 0.99073
 H514 H 0.04231 0.50682 1.02277
 H515 H -0.03249 0.46520 1.03124
 H516 H 0.00538 0.47251 0.95361
 H517 H -0.04126 0.48819 0.93924
 H518 H -0.02886 0.45338 0.94960
 H519 H 0.03710 0.53918 1.04154
 H520 H 0.01619 0.51337 1.06493
 H521 H -0.04299 0.53328 0.93794
 H522 H -0.08118 0.51677 1.00287
 H523 H 0.06635 0.47988 1.01059
 H524 H 0.04417 0.45970 1.03654
 H525 H -0.06854 0.53153 1.03521
 H526 H -0.01809 0.55796 1.02967
 H527 H 0.01557 0.43102 0.98197
 H528 H 0.03882 0.45479 0.95665
 O529 O 0.06448 0.48649 0.50856
 O530 O 0.06542 0.52455 0.49581
 O531 O 0.01511 0.48699 0.56191
 O532 O -0.02130 0.49543 0.56658
 O533 O 0.01223 0.43665 0.50869
 O534 O -0.00008 0.43763 0.47084
 O535 O -0.04713 0.54740 0.50588
 O536 O -0.02906 0.54842 0.54024
 O537 O 0.00230 0.55120 0.45507
 O538 O 0.03650 0.53381 0.44790
 O539 O -0.04632 0.50024 0.45223
 O540 O -0.05234 0.46468 0.47165
 O541 O -0.06295 0.51715 0.48897
 O542 O -0.06446 0.47636 0.50090
 O543 O -0.01540 0.51658 0.43613
 O544 O 0.02501 0.50316 0.43361
 O545 O -0.01311 0.56501 0.48758
 O546 O 0.00539 0.56354 0.52470
 O547 O 0.04888 0.45640 0.49113
 O548 O 0.02785 0.45366 0.45634
 O549 O -0.00282 0.45023 0.54145
 O550 O -0.03869 0.47130 0.54745
 O551 O 0.04667 0.50240 0.54598
 O552 O 0.04674 0.54011 0.52753
 Zr553 Zr 0.03735 0.50932 0.51236
 O554 O 0.01736 0.53155 0.49300
 Zr555 Zr -0.00794 0.48485 0.53513
 O556 O -0.02967 0.50684 0.51741
 Zr557 Zr 0.01454 0.46513 0.48751
 O558 O -0.00681 0.48561 0.46771
 Zr559 Zr -0.01340 0.53730 0.50995
 O560 O 0.00730 0.51646 0.53043
 Zr561 Zr 0.00847 0.51698 0.46228
 O562 O 0.03097 0.49566 0.48028
 Zr563 Zr -0.03670 0.49314 0.48569
 O564 O -0.01663 0.46995 0.50432
 O565 O 0.02250 0.47825 0.51881
 O566 O -0.02202 0.52417 0.47863
 C567 C 0.06561 0.46693 0.49956
 C568 C 0.03541 0.49437 0.56283
 C569 C 0.00471 0.43424 0.52896
 C570 C -0.06384 0.53704 0.49728
 C571 C -0.00603 0.56714 0.46712
 C572 C -0.03565 0.50914 0.43545
 H573 H 0.02573 0.54571 0.49041
 H574 H -0.00986 0.47781 0.45340
 H575 H 0.03226 0.46805 0.52784
 H576 H -0.04351 0.50948 0.52652
 H577 H -0.01859 0.54453 0.55265
 H578 H -0.02955 0.50968 0.56369
 H579 H 0.01607 0.49022 0.42849
 H580 H 0.03914 0.46486 0.45124
 H581 H -0.00425 0.57727 0.52501
 H582 H 0.06094 0.53786 0.53601
 H583 H -0.04225 0.45892 0.45956
 H584 H -0.01550 0.43598 0.47724
 H585 H 0.07880 0.52329 0.50570
 H586 H 0.04970 0.52926 0.45702
 H587 H -0.04333 0.45972 0.53656
 H588 H -0.06884 0.48464 0.51471
 O589 O 0.56345 0.98553 0.01011
 O590 O 0.56461 1.02347 -0.00287
 O591 O 0.51416 0.98683 0.06362
 O592 O 0.47779 0.99544 0.06825
 O593 O 0.51084 0.93601 0.01079
 O594 O 0.49848 0.93676 -0.02703
 O595 O 0.45224 1.04715 0.00712
 O596 O 0.47032 1.04831 0.04144
 O597 O 0.50176 1.05022 -0.04371
 O598 O 0.53572 1.03245 -0.05087
 O599 O 0.45265 0.99953 -0.04612
 O600 O 0.44644 0.96416 -0.02636
 O601 O 0.43618 1.01684 -0.00947
 O602 O 0.43440 0.97620 0.00276
 O603 O 0.48365 1.01557 -0.06236
 O604 O 0.52395 1.00181 -0.06485
 O605 O 0.48647 1.06439 -0.01131
 O606 O 0.50489 1.06304 0.02582
 O607 O 0.54762 0.95541 -0.00704
 O608 O 0.52648 0.95246 -0.04171
 O609 O 0.49593 0.94994 0.04347
 O610 O 0.46023 0.97131 0.04935
 O611 O 0.54581 1.00186 0.04749
 O612 O 0.54607 1.03940 0.02873
 Zr613 Zr 0.53647 1.00854 0.01383
 O614 O 0.51661 1.03074 -0.00568
 Zr615 Zr 0.49106 0.98455 0.03687
 O616 O 0.46945 1.00655 0.01900
 Zr617 Zr 0.51332 0.96431 -0.01061
 O618 O 0.49208 0.98477 -0.03055
 Zr619 Zr 0.48590 1.03685 0.01125
 O620 O 0.50649 1.01603 0.03188
 Zr621 Zr 0.50757 1.01599 -0.03627
 O622 O 0.52995 0.99466 -0.01812
 Zr623 Zr 0.46227 0.99265 -0.01260
 O624 O 0.48221 0.96948 0.00620
 O625 O 0.52143 0.97761 0.02057
 O626 O 0.47714 1.02353 -0.01994
 C627 C 0.56445 0.96592 0.00122
 C628 C 0.53451 0.99410 0.06444
 C629 C 0.50331 0.93380 0.03108
 C630 C 0.43544 1.03681 -0.00134
 C631 C 0.49361 1.06633 -0.03177
 C632 C 0.46335 1.00825 -0.06297
 H633 H 0.52509 1.04482 -0.00839
 H634 H 0.48896 0.97687 -0.04479
 H635 H 0.53115 0.96742 0.02966
 H636 H 0.45564 1.00936 0.02810
 H637 H 0.48074 1.04444 0.05390
 H638 H 0.46969 1.00975 0.06528
 H639 H 0.51488 0.98892 -0.06987
 H640 H 0.53779 0.96357 -0.04696
 H641 H 0.49536 1.07685 0.02604
 H642 H 0.56028 1.03714 0.03721
 H643 H 0.45644 0.95826 -0.03845
 H644 H 0.48306 0.93528 -0.02060
 H645 H 0.57800 1.02222 0.00702
 H646 H 0.54889 1.02793 -0.04168
 H647 H 0.45548 0.95969 0.03855
 H648 H 0.43014 0.98457 0.01655
 O649 O 0.43529 0.50940 0.01256
 O650 O 0.43633 0.47211 -0.00107
 O651 O 0.48527 0.50854 0.06470
 O652 O 0.52201 0.50028 0.06777
 O653 O 0.48526 0.56217 0.01466
 O654 O 0.49704 0.56468 -0.02358
 O655 O 0.54985 0.45495 0.00357
 O656 O 0.53228 0.45011 0.03817
 O657 O 0.49909 0.45226 -0.04575
 O658 O 0.46421 0.46899 -0.05059
 O659 O 0.54597 0.50508 -0.04730
 O660 O 0.55019 0.54002 -0.02663
 O661 O 0.56396 0.48731 -0.01180
 O662 O 0.56339 0.52714 0.00167
 O663 O 0.51560 0.48842 -0.06311
 O664 O 0.47473 0.50090 -0.06385
 O665 O 0.51616 0.43686 -0.01488
 O666 O 0.49850 0.43454 0.02300
 O667 O 0.44913 0.54159 -0.00344
 O668 O 0.46987 0.54863 -0.03816
 O669 O 0.50174 0.54688 0.04590
 O670 O 0.53828 0.52700 0.04967
 O671 O 0.45423 0.49283 0.04903
 O672 O 0.45651 0.45597 0.02934
 Zr673 Zr 0.46371 0.48810 0.01498
 O674 O 0.48435 0.46835 -0.00629
 Zr675 Zr 0.50804 0.51304 0.03746
 O676 O 0.53047 0.49350 0.01778
 Zr677 Zr 0.48396 0.53524 -0.00816
 O678 O 0.50587 0.51726 -0.02984
 Zr679 Zr 0.51565 0.46282 0.00915
 O680 O 0.49433 0.48108 0.03155
 Zr681 Zr 0.49199 0.48563 -0.03641
 O682 O 0.46892 0.50449 -0.01646
 Zr683 Zr 0.53635 0.50988 -0.01334
 O684 O 0.51556 0.53063 0.00727
 O685 O 0.47709 0.51942 0.02255
 O686 O 0.52307 0.47871 -0.02161
 C687 C 0.43300 0.52940 0.00448
 C688 C 0.46522 0.50051 0.06583
 C689 C 0.49322 0.56344 0.03470
 C690 C 0.56598 0.46692 -0.00463
 C691 C 0.50847 0.43585 -0.03505
 C692 C 0.53559 0.49652 -0.06403
 H693 H 0.47658 0.45403 -0.00933
 H694 H 0.50837 0.52614 -0.04384
 H695 H 0.46692 0.52857 0.03224
 H696 H 0.54456 0.49093 0.02628
 H697 H 0.52191 0.45263 0.05116
 H698 H 0.53144 0.48712 0.06363
 H699 H 0.48340 0.51422 -0.06889
 H700 H 0.45956 0.53707 -0.04398
 H701 H 0.50877 0.42130 0.02206
 H702 H 0.44244 0.45690 0.03852
 H703 H 0.53984 0.54582 -0.03837
 H704 H 0.51257 0.56635 -0.01783
 H705 H 0.42313 0.47191 0.00940
 H706 H 0.45099 0.47273 -0.04094
 H707 H 0.54236 0.53952 0.03927
 H708 H 0.56818 0.51838 0.01512
 O709 O -0.06683 0.01107 0.51064
 O710 O -0.06608 -0.02622 0.49695
 O711 O -0.01731 0.00948 0.56325
 O712 O 0.01930 0.00081 0.56662
 O713 O -0.01623 0.06323 0.51328
 O714 O -0.00413 0.06564 0.47512
 O715 O 0.04733 -0.04457 0.50273
 O716 O 0.02926 -0.04938 0.53705
 O717 O -0.00313 -0.04672 0.45281
 O718 O -0.03776 -0.02963 0.44769
 O719 O 0.04433 0.00559 0.45176
 O720 O 0.04869 0.04049 0.47254
 O721 O 0.06185 -0.01233 0.48751
 O722 O 0.06156 0.02743 0.50085
 O723 O 0.01390 -0.01068 0.43564
 O724 O -0.02683 0.00219 0.43459
 O725 O 0.01358 -0.06234 0.48377
 O726 O -0.00448 -0.06457 0.52146
 O727 O -0.05244 0.04312 0.49485
 O728 O -0.03139 0.04995 0.46033
 O729 O -0.00026 0.04769 0.54467
 O730 O 0.03599 0.02742 0.54876
 O731 O -0.04838 -0.00585 0.54728
 O732 O -0.04636 -0.04267 0.52749
 Zr733 Zr -0.03866 -0.01058 0.51329
 O734 O -0.01802 -0.03053 0.49218
 Zr735 Zr 0.00573 0.01381 0.53622
 O736 O 0.02813 -0.00591 0.51669
 Zr737 Zr -0.01768 0.03635 0.49041
 O738 O 0.00421 0.01817 0.46889
 Zr739 Zr 0.01309 -0.03643 0.50787
 O740 O -0.00825 -0.01799 0.53011
 Zr741 Zr -0.00994 -0.01329 0.46214
 O742 O -0.03298 0.00579 0.48192
 Zr743 Zr 0.03445 0.01045 0.48565
 O744 O 0.01372 0.03137 0.50613
 O745 O -0.02501 0.02056 0.52104
 O746 O 0.02095 -0.02057 0.47720
 C747 C -0.06879 0.03112 0.50259
 C748 C -0.03745 0.00165 0.56421
 C749 C -0.00843 0.06437 0.53339
 C750 C 0.06365 -0.03270 0.49477
 C751 C 0.00601 -0.06325 0.46355
 C752 C 0.03399 -0.00279 0.43491
 H753 H -0.02591 -0.04476 0.48904
 H754 H 0.00691 0.02705 0.45492
 H755 H -0.03515 0.02980 0.53067
 H756 H 0.04211 -0.00862 0.52533
 H757 H 0.01878 -0.04676 0.54993
 H758 H 0.02866 -0.01241 0.56252
 H759 H -0.01800 0.01545 0.42967
 H760 H -0.04177 0.03851 0.45439
 H761 H 0.00566 -0.07791 0.52059
 H762 H -0.06050 -0.04160 0.53655
 H763 H 0.03857 0.04634 0.46061
 H764 H 0.01137 0.06714 0.48101
 H765 H -0.07938 -0.02628 0.50730
 H766 H -0.05102 -0.02579 0.45724
 H767 H 0.04032 0.03990 0.53842
 H768 H 0.06603 0.01873 0.51445
 O769 O 0.80443 0.25039 0.20930
 O770 O 0.78929 0.21400 0.20388
 O771 O 0.74841 0.29467 0.19738
 O772 O 0.71379 0.30054 0.21136
 O773 O 0.78927 0.30251 0.25784
 O774 O 0.79178 0.28257 0.29246
 O775 O 0.68602 0.23249 0.25234
 O776 O 0.68827 0.24707 0.21620
 O777 O 0.73972 0.18652 0.25983
 O778 O 0.77788 0.18674 0.25281
 O779 O 0.72884 0.23675 0.30933
 O780 O 0.73662 0.27676 0.31139
 O781 O 0.69511 0.24994 0.28510
 O782 O 0.71124 0.28801 0.29244
 O783 O 0.74952 0.20659 0.29748
 O784 O 0.78918 0.20459 0.28146
 O785 O 0.70978 0.19926 0.23938
 O786 O 0.71256 0.21767 0.20202
 O787 O 0.81373 0.26732 0.24230
 O788 O 0.81007 0.25474 0.28114
 O789 O 0.75972 0.31546 0.23698
 O790 O 0.71877 0.31235 0.24461
 O791 O 0.77018 0.26518 0.18552
 O792 O 0.75622 0.22598 0.18511
 Zr793 Zr 0.76999 0.24278 0.21332
 O794 O 0.74906 0.21992 0.23085
 Zr795 Zr 0.73996 0.28673 0.23130
 O796 O 0.71726 0.26544 0.24874
 Zr797 Zr 0.78339 0.26779 0.26133
 O798 O 0.76244 0.24630 0.28061
 Zr799 Zr 0.71640 0.23361 0.23370
 O800 O 0.73682 0.25593 0.21437
 Zr801 Zr 0.75972 0.21525 0.26425
 O802 O 0.78258 0.23602 0.24595
 Zr803 Zr 0.72926 0.25910 0.28150
 O804 O 0.75096 0.28224 0.26479
 O805 O 0.77259 0.27410 0.22857
 O806 O 0.72674 0.22749 0.26685
 C807 C 0.81855 0.25957 0.22261
 C808 C 0.76015 0.28416 0.18234
 C809 C 0.77792 0.31829 0.24816
 C810 C 0.68123 0.23995 0.27212
 C811 C 0.72104 0.18366 0.24947
 C812 C 0.73785 0.21727 0.31238
 H813 H 0.74912 0.20550 0.22262
 H814 H 0.76877 0.24463 0.29593
 H815 H 0.78264 0.28454 0.22016
 H816 H 0.70206 0.27246 0.24891
 H817 H 0.69432 0.25463 0.20245
 H818 H 0.70076 0.29036 0.21308
 H819 H 0.79046 0.21368 0.29529
 H820 H 0.81446 0.24009 0.27450
 H821 H 0.69777 0.20995 0.20212
 H822 H 0.76581 0.22874 0.17155
 H823 H 0.75123 0.27099 0.31707
 H824 H 0.77844 0.29155 0.29724
 H825 H 0.79721 0.21716 0.18934
 H826 H 0.78743 0.19201 0.24004
 H827 H 0.72446 0.31581 0.25985
 H828 H 0.69912 0.29115 0.28145
 O829 O 0.75462 0.70584 0.70154
 O830 O 0.78977 0.70179 0.71916
 O831 O 0.70763 0.69844 0.75780
 O832 O 0.69914 0.71594 0.78971
 O833 O 0.69959 0.75387 0.70891
 O834 O 0.71822 0.78837 0.70331
 O835 O 0.76437 0.75931 0.81540
 O836 O 0.75194 0.72308 0.81647
 O837 O 0.81333 0.76282 0.76260
 O838 O 0.81500 0.75209 0.72553
 O839 O 0.76120 0.81198 0.76552
 O840 O 0.72184 0.81307 0.75649
 O841 O 0.74646 0.79071 0.80191
 O842 O 0.70927 0.79610 0.78269
 O843 O 0.79252 0.79871 0.74727
 O844 O 0.79686 0.77890 0.71013
 O845 O 0.79985 0.74552 0.79444
 O846 O 0.78304 0.70783 0.79530
 O847 O 0.73718 0.73741 0.68785
 O848 O 0.74720 0.77651 0.68764
 O849 O 0.68596 0.73595 0.74031
 O850 O 0.68696 0.74782 0.78027
 O851 O 0.73816 0.68507 0.73822
 O852 O 0.77684 0.68671 0.75377
 Zr853 Zr 0.75981 0.71291 0.73585
 O854 O 0.78124 0.73264 0.75550
 Zr855 Zr 0.71395 0.73297 0.76182
 O856 O 0.73372 0.75267 0.78319
 Zr857 Zr 0.73390 0.75877 0.71589
 O858 O 0.75389 0.78018 0.73530
 Zr859 Zr 0.76599 0.73838 0.78710
 O860 O 0.74512 0.71698 0.76818
 Zr861 Zr 0.78532 0.76473 0.74113
 O862 O 0.76610 0.74413 0.71977
 Zr863 Zr 0.73962 0.78408 0.76773
 O864 O 0.71789 0.76513 0.74714
 O865 O 0.72809 0.72720 0.73013
 O866 O 0.77163 0.77035 0.77324
 C867 C 0.74618 0.71783 0.68551
 C868 C 0.71905 0.68260 0.74832
 C869 C 0.68359 0.74519 0.72078
 C870 C 0.75571 0.77903 0.81774
 C871 C 0.81567 0.75449 0.78254
 C872 C 0.78086 0.81443 0.75659
 H873 H 0.79594 0.72476 0.75698
 H874 H 0.75537 0.79472 0.72719
 H875 H 0.71847 0.71768 0.72061
 H876 H 0.72587 0.75407 0.79795
 H877 H 0.74507 0.70881 0.81160
 H878 H 0.70924 0.71817 0.80266
 H879 H 0.78743 0.79232 0.70676
 H880 H 0.76242 0.77014 0.68463
 H881 H 0.79015 0.70955 0.81029
 H882 H 0.77466 0.67219 0.74602
 H883 H 0.72725 0.81664 0.74100
 H884 H 0.70843 0.79413 0.71567
 H885 H 0.78737 0.68650 0.71307
 H886 H 0.81056 0.73827 0.71760
 H887 H 0.68298 0.76205 0.77238
 H888 H 0.70570 0.78629 0.79584
 O889 O 0.29505 0.20070 0.75056
 O890 O 0.29691 0.21428 0.71287
 O891 O 0.30238 0.26140 0.78948
 O892 O 0.28393 0.29374 0.79468
 O893 O 0.24943 0.21298 0.80577
 O894 O 0.21358 0.20582 0.78990
 O895 O 0.23744 0.31189 0.72875
 O896 O 0.27451 0.31426 0.73939
 O897 O 0.23246 0.25501 0.68696
 O898 O 0.24578 0.21836 0.68893
 O899 O 0.18617 0.26243 0.74014
 O900 O 0.18672 0.25752 0.78036
 O901 O 0.20689 0.30011 0.74927
 O902 O 0.20371 0.28483 0.78919
 O903 O 0.19884 0.24101 0.71089
 O904 O 0.21986 0.20414 0.71020
 O905 O 0.24942 0.28795 0.69585
 O906 O 0.28851 0.29033 0.70995
 O907 O 0.26438 0.18872 0.77079
 O908 O 0.22475 0.18716 0.76225
 O909 O 0.26704 0.24554 0.81474
 O910 O 0.25280 0.28477 0.80970
 O911 O 0.31527 0.23899 0.76099
 O912 O 0.31155 0.25002 0.72052
 Zr913 Zr 0.28655 0.23399 0.74096
 O914 O 0.26526 0.25111 0.71809
 Zr915 Zr 0.26739 0.26429 0.78427
 O916 O 0.24613 0.28322 0.76289
 Zr917 Zr 0.24221 0.21659 0.77122
 O918 O 0.21932 0.23352 0.74991
 Zr919 Zr 0.25912 0.28384 0.72973
 O920 O 0.28201 0.26744 0.75180
 Zr921 Zr 0.23340 0.23617 0.71726
 O922 O 0.25548 0.21716 0.73808
 Zr923 Zr 0.21489 0.26704 0.76027
 O924 O 0.23544 0.24907 0.78360
 O925 O 0.27360 0.23161 0.77374
 O926 O 0.22733 0.26924 0.72728
 C927 C 0.28391 0.18567 0.76165
 C928 C 0.31813 0.25091 0.77871
 C929 C 0.25895 0.22614 0.81976
 C930 C 0.21780 0.31490 0.73760
 C931 C 0.23956 0.27483 0.68206
 C932 C 0.18326 0.25153 0.72179
 H933 H 0.27238 0.25125 0.70287
 H934 H 0.20494 0.22521 0.75006
 H935 H 0.28394 0.22331 0.78396
 H936 H 0.24455 0.29863 0.76889
 H937 H 0.28927 0.31009 0.74601
 H938 H 0.28061 0.30550 0.78323
 H939 H 0.20699 0.20155 0.72067
 H940 H 0.23082 0.18250 0.74734
 H941 H 0.28589 0.30439 0.70113
 H942 H 0.32641 0.24269 0.72305
 H943 H 0.18387 0.24143 0.77750
 H944 H 0.20829 0.21892 0.79878
 H945 H 0.31247 0.20854 0.71542
 H946 H 0.25957 0.21036 0.69399
 H947 H 0.23915 0.27693 0.81536
 H948 H 0.21315 0.29839 0.79053
 O949 O 0.20026 0.74988 0.29521
 O950 O 0.21391 0.71245 0.29757
 O951 O 0.26115 0.78892 0.30166
 O952 O 0.29363 0.79364 0.28292
 O953 O 0.21242 0.80435 0.24886
 O954 O 0.20513 0.78811 0.21314
 O955 O 0.31146 0.72749 0.23701
 O956 O 0.31405 0.73857 0.27394
 O957 O 0.25433 0.68578 0.23300
 O958 O 0.21762 0.68795 0.24658
 O959 O 0.26154 0.73816 0.18585
 O960 O 0.25672 0.77825 0.18602
 O961 O 0.29951 0.74751 0.20624
 O962 O 0.28429 0.78714 0.20260
 O963 O 0.24009 0.70918 0.19907
 O964 O 0.20327 0.70875 0.22047
 O965 O 0.28745 0.69485 0.24965
 O966 O 0.29007 0.70945 0.28855
 O967 O 0.18813 0.76963 0.26434
 O968 O 0.18636 0.76074 0.22479
 O969 O 0.24522 0.81350 0.26609
 O970 O 0.28447 0.80832 0.25159
 O971 O 0.23872 0.76070 0.31508
 O972 O 0.24986 0.72034 0.31179
 Zr973 Zr 0.23362 0.74030 0.28662
 O974 O 0.25062 0.71724 0.26545
 Zr975 Zr 0.26397 0.78317 0.26667
 O976 O 0.28279 0.76158 0.24549
 Zr977 Zr 0.21599 0.76985 0.24196
 O978 O 0.23279 0.74830 0.21919
 Zr979 Zr 0.28344 0.72874 0.25890
 O980 O 0.26717 0.75103 0.28169
 Zr981 Zr 0.23549 0.71598 0.23366
 O982 O 0.21659 0.73702 0.25566
 Zr983 Zr 0.26640 0.75855 0.21435
 O984 O 0.24856 0.78207 0.23479
 O985 O 0.23120 0.77276 0.27325
 O986 O 0.26864 0.72587 0.22721
 C987 C 0.18514 0.76075 0.28401
 C988 C 0.25064 0.77844 0.31764
 C989 C 0.22569 0.81840 0.25813
 C990 C 0.31440 0.73606 0.21722
 C991 C 0.27423 0.68098 0.24006
 C992 C 0.25054 0.71985 0.18323
 H993 H 0.25077 0.70218 0.27278
 H994 H 0.22438 0.74827 0.20485
 H995 H 0.22293 0.78306 0.28353
 H996 H 0.29824 0.76755 0.24371
 H997 H 0.30997 0.74536 0.28866
 H998 H 0.30543 0.78230 0.27945
 H999 H 0.20060 0.71901 0.20748
 H1000 H 0.18172 0.74594 0.23102
 H1001 H 0.30416 0.70066 0.28595
 H1002 H 0.24263 0.72310 0.32671
 H1003 H 0.24057 0.77533 0.18330
 H1004 H 0.21825 0.79693 0.20771
 H1005 H 0.20828 0.71521 0.31317
 H1006 H 0.20974 0.69317 0.26041
 H1007 H 0.27656 0.81373 0.23789
 H1008 H 0.29786 0.78870 0.21204
 O1009 O 0.22961 0.73594 0.81260
 O1010 O 0.23912 0.77445 0.81460
 O1011 O 0.18592 0.73337 0.75509
 O1012 O 0.18751 0.74290 0.71852
 O1013 O 0.24101 0.68528 0.76119
 O1014 O 0.28044 0.68736 0.75548
 O1015 O 0.24948 0.79573 0.70161
 O1016 O 0.21259 0.79636 0.71403
 O1017 O 0.28985 0.80158 0.75987
 O1018 O 0.29138 0.78386 0.79458
 O1019 O 0.30420 0.75114 0.71211
 O1020 O 0.28850 0.71439 0.70381
 O1021 O 0.27008 0.76567 0.68914
 O1022 O 0.26144 0.72472 0.68679
 O1023 O 0.31352 0.76804 0.74503
 O1024 O 0.30948 0.75405 0.78524
 O1025 O 0.26052 0.81442 0.73862
 O1026 O 0.22058 0.81191 0.75026
 O1027 O 0.25085 0.70615 0.80049
 O1028 O 0.28877 0.70372 0.78507
 O1029 O 0.21119 0.69794 0.74054
 O1030 O 0.21064 0.71893 0.70435
 O1031 O 0.19504 0.74945 0.78856
 O1032 O 0.21060 0.78820 0.79043
 Zr1033 Zr 0.22924 0.75804 0.78457
 O1034 O 0.25094 0.78076 0.76784
 Zr1035 Zr 0.21653 0.73276 0.73658
 O1036 O 0.23697 0.75519 0.71785
 Zr1037 Zr 0.26006 0.71444 0.76682
 O1038 O 0.28254 0.73550 0.74883
 Zr1039 Zr 0.23989 0.78601 0.73460
 O1040 O 0.21682 0.76461 0.75188
 Zr1041 Zr 0.28349 0.76707 0.76440
 O1042 O 0.26260 0.74527 0.78376
 Zr1043 Zr 0.27010 0.74240 0.71632
 O1044 O 0.24914 0.71875 0.73326
 O1045 O 0.22723 0.72666 0.76937
 O1046 O 0.27286 0.77374 0.73150
 C1047 C 0.23936 0.71679 0.81561
 C1048 C 0.18101 0.74052 0.77499
 C1049 C 0.22275 0.68227 0.75017
 C1050 C 0.26104 0.78523 0.68648
 C1051 C 0.27893 0.81722 0.74946
 C1052 C 0.31820 0.76085 0.72513
 H1053 H 0.25115 0.79498 0.77642
 H1054 H 0.29759 0.72822 0.74823
 H1055 H 0.21724 0.71612 0.77771
 H1056 H 0.23045 0.75742 0.70267
 H1057 H 0.19860 0.79198 0.72221
 H1058 H 0.19152 0.75678 0.71011
 H1059 H 0.31702 0.74154 0.77714
 H1060 H 0.29159 0.71538 0.79650
 H1061 H 0.22155 0.82563 0.74061
 H1062 H 0.19960 0.78572 0.80293
 H1063 H 0.29919 0.70950 0.71564
 H1064 H 0.27746 0.68582 0.73914
 H1065 H 0.22688 0.77304 0.82609
 H1066 H 0.28038 0.77857 0.80611
 H1067 H 0.22278 0.70772 0.70154
 H1068 H 0.24790 0.73207 0.68030
 O1069 O 0.25572 0.20706 0.20191
 O1070 O 0.29093 0.20301 0.21951
 O1071 O 0.20874 0.19977 0.25809
 O1072 O 0.20033 0.21721 0.29007
 O1073 O 0.20082 0.25514 0.20925
 O1074 O 0.21948 0.28967 0.20371
 O1075 O 0.26557 0.26048 0.31581
 O1076 O 0.25313 0.22425 0.31683
 O1077 O 0.31455 0.26399 0.26301
 O1078 O 0.31623 0.25327 0.22594
 O1079 O 0.26249 0.31318 0.26597
 O1080 O 0.22323 0.31442 0.25699
 O1081 O 0.24770 0.29190 0.30235
 O1082 O 0.21046 0.29729 0.28301
 O1083 O 0.29378 0.29990 0.24769
 O1084 O 0.29811 0.28010 0.21054
 O1085 O 0.30106 0.24668 0.29484
 O1086 O 0.28423 0.20900 0.29565
 O1087 O 0.23833 0.23867 0.18823
 O1088 O 0.24850 0.27777 0.18805
 O1089 O 0.18718 0.23723 0.24066
 O1090 O 0.18817 0.24914 0.28064
 O1091 O 0.23927 0.18634 0.23855
 O1092 O 0.27796 0.18790 0.25411
 Zr1093 Zr 0.26098 0.21414 0.23621
 O1094 O 0.28243 0.23384 0.25588
 Zr1095 Zr 0.21515 0.23426 0.26219
 O1096 O 0.23494 0.25391 0.28359
 Zr1097 Zr 0.23513 0.26005 0.21627
 O1098 O 0.25514 0.28141 0.23570
 Zr1099 Zr 0.26719 0.23957 0.28749
 O1100 O 0.24629 0.21821 0.26854
 Zr1101 Zr 0.28655 0.26593 0.24153
 O1102 O 0.26731 0.24536 0.22014
 Zr1103 Zr 0.24088 0.28531 0.26814
 O1104 O 0.21912 0.26641 0.24752
 O1105 O 0.22929 0.22849 0.23051
 O1106 O 0.27286 0.27155 0.27365
 C1107 C 0.24725 0.21905 0.18589
 C1108 C 0.22012 0.18392 0.24859
 C1109 C 0.18482 0.24643 0.22110
 C1110 C 0.25693 0.28019 0.31817
 C1111 C 0.31689 0.25566 0.28296
 C1112 C 0.28214 0.31563 0.25703
 H1113 H 0.29713 0.22594 0.25736
 H1114 H 0.25663 0.29597 0.22761
 H1115 H 0.21966 0.21898 0.22099
 H1116 H 0.22709 0.25531 0.29835
 H1117 H 0.24624 0.21000 0.31195
 H1118 H 0.21042 0.21946 0.30304
 H1119 H 0.28868 0.29352 0.20717
 H1120 H 0.26368 0.27133 0.18500
 H1121 H 0.29133 0.21070 0.31064
 H1122 H 0.27577 0.17339 0.24633
 H1123 H 0.22847 0.31785 0.24141
 H1124 H 0.20965 0.29540 0.21605
 H1125 H 0.28850 0.18774 0.21340
 H1126 H 0.31178 0.23946 0.21800
 H1127 H 0.18415 0.26335 0.27270
 H1128 H 0.20695 0.28757 0.29625
 O1129 O 0.79376 0.70289 0.25035
 O1130 O 0.79553 0.71653 0.21271
 O1131 O 0.80109 0.76365 0.28931
 O1132 O 0.78257 0.79597 0.29452
 O1133 O 0.74843 0.71508 0.30579
 O1134 O 0.71249 0.70785 0.29016
 O1135 O 0.73578 0.81391 0.22873
 O1136 O 0.77285 0.81641 0.23924
 O1137 O 0.73083 0.75694 0.18703
 O1138 O 0.74421 0.72034 0.18901
 O1139 O 0.68466 0.76426 0.24043
 O1140 O 0.68537 0.75950 0.28058
 O1141 O 0.70534 0.80208 0.24939
 O1142 O 0.70239 0.78681 0.28936
 O1143 O 0.69730 0.74287 0.21113
 O1144 O 0.71845 0.70608 0.21040
 O1145 O 0.74775 0.78993 0.19581
 O1146 O 0.78686 0.79249 0.20981
 O1147 O 0.76320 0.69084 0.27070
 O1148 O 0.72351 0.68920 0.26246
 O1149 O 0.76594 0.74772 0.31468
 O1150 O 0.75150 0.78690 0.30967
 O1151 O 0.81393 0.74123 0.26081
 O1152 O 0.81004 0.75232 0.22034
 Zr1153 Zr 0.78517 0.73618 0.24085
 O1154 O 0.76373 0.75320 0.21805
 Zr1155 Zr 0.76607 0.76645 0.28421
 O1156 O 0.74468 0.78531 0.26288
 Zr1157 Zr 0.74098 0.71867 0.27130
 O1158 O 0.71796 0.73551 0.25007
 Zr1159 Zr 0.75754 0.78592 0.22967
 O1160 O 0.78057 0.76963 0.25168
 Zr1161 Zr 0.73190 0.73817 0.21736
 O1162 O 0.75413 0.71925 0.23811
 Zr1163 Zr 0.71347 0.76904 0.26039
 O1164 O 0.73416 0.75115 0.28367
 O1165 O 0.77235 0.73378 0.27368
 O1166 O 0.72578 0.77124 0.22736
 C1167 C 0.78268 0.68782 0.26145
 C1168 C 0.81683 0.75316 0.27852
 C1169 C 0.75797 0.72826 0.31974
 C1170 C 0.71617 0.81689 0.23766
 C1171 C 0.73790 0.77675 0.18207
 C1172 C 0.68171 0.75331 0.22211
 H1173 H 0.77079 0.75334 0.20280
 H1174 H 0.70361 0.72716 0.25029
 H1175 H 0.78275 0.72550 0.28384
 H1176 H 0.74308 0.80071 0.26888
 H1177 H 0.78764 0.81231 0.24582
 H1178 H 0.77915 0.80771 0.28308
 H1179 H 0.70561 0.70347 0.22090
 H1180 H 0.72951 0.68453 0.24753
 H1181 H 0.78416 0.80653 0.20098
 H1182 H 0.82495 0.74507 0.22285
 H1183 H 0.68269 0.74335 0.27791
 H1184 H 0.70725 0.72093 0.29908
 H1185 H 0.81112 0.71087 0.21522
 H1186 H 0.75810 0.71247 0.19400
 H1187 H 0.73793 0.77900 0.31541
 H1188 H 0.71176 0.80042 0.29062
 O1189 O 0.76169 0.23730 0.68247
 O1190 O 0.75464 0.27641 0.68408
 O1191 O 0.81284 0.22767 0.73388
 O1192 O 0.81609 0.23220 0.77091
 O1193 O 0.75479 0.18320 0.73082
 O1194 O 0.71674 0.18698 0.74317
 O1195 O 0.76122 0.28803 0.79853
 O1196 O 0.79586 0.28736 0.78056
 O1197 O 0.71288 0.30159 0.74803
 O1198 O 0.70657 0.28808 0.71202
 O1199 O 0.70190 0.24817 0.79274
 O1200 O 0.71595 0.21095 0.79759
 O1201 O 0.74016 0.25874 0.81188
 O1202 O 0.74671 0.21645 0.80990
 O1203 O 0.68950 0.26821 0.76226
 O1204 O 0.68781 0.25849 0.72129
 O1205 O 0.74551 0.31054 0.76568
 O1206 O 0.78312 0.30705 0.74743
 O1207 O 0.74021 0.20822 0.69560
 O1208 O 0.70491 0.20663 0.71637
 O1209 O 0.78772 0.19205 0.74795
 O1210 O 0.79348 0.20905 0.78574
 O1211 O 0.80047 0.24668 0.70265
 O1212 O 0.78656 0.28629 0.70489
 Zr1213 Zr 0.76735 0.25682 0.71146
 O1214 O 0.74946 0.27940 0.73243
 Zr1215 Zr 0.78458 0.22645 0.75567
 O1216 O 0.76827 0.24846 0.77835
 Zr1217 Zr 0.73659 0.21383 0.73061
 O1218 O 0.71803 0.23467 0.75276
 Zr1219 Zr 0.76510 0.28081 0.76404
 O1220 O 0.78427 0.25950 0.74249
 Zr1221 Zr 0.71693 0.26756 0.73946
 O1222 O 0.73368 0.24622 0.71612
 Zr1223 Zr 0.73489 0.23786 0.78368
 O1224 O 0.75192 0.21435 0.76257
 O1225 O 0.76949 0.22412 0.72429
 O1226 O 0.73212 0.27053 0.77091
 C1227 C 0.75019 0.21931 0.67969
 C1228 C 0.81572 0.23624 0.71405
 C1229 C 0.77433 0.17813 0.73866
 C1230 C 0.75100 0.27721 0.81444
 C1231 C 0.72578 0.31536 0.75819
 C1232 C 0.68683 0.25956 0.78203
 H1233 H 0.74883 0.29441 0.72502
 H1234 H 0.70278 0.22833 0.75490
 H1235 H 0.77777 0.21394 0.71389
 H1236 H 0.77693 0.24882 0.79253
 H1237 H 0.80815 0.28300 0.76995
 H1238 H 0.81451 0.24638 0.77937
 H1239 H 0.68084 0.24546 0.72912
 H1240 H 0.70124 0.21929 0.70600
 H1241 H 0.78430 0.31979 0.75804
 H1242 H 0.79583 0.28420 0.69101
 H1243 H 0.70552 0.20589 0.78577
 H1244 H 0.72249 0.18327 0.75843
 H1245 H 0.76519 0.27517 0.67099
 H1246 H 0.71535 0.28292 0.69870
 H1247 H 0.78149 0.19789 0.78883
 H1248 H 0.76094 0.22281 0.81556
 C1249 C 0.04705 1.00593 1.15082
 C1250 C 0.06052 0.98545 1.16021
 C1251 C 0.07870 1.00158 1.16847
 C1252 C 0.06543 1.02205 1.15946
 C1253 C 0.06015 1.00392 1.12837
 C1254 C 0.07834 1.02004 1.13664
 C1255 C 0.07343 0.98347 1.13739
 C1256 C 0.09176 0.99958 1.14599
 C1257 C 0.08985 1.00042 1.19035
 C1258 C 0.10005 0.99983 1.20782
 C1259 C 0.05020 1.00486 1.10589
 C1260 C 0.04216 1.00505 1.08730
 H1261 H 0.02854 1.00859 1.15250
 H1262 H 0.05333 0.97123 1.17016
 H1263 H 0.06225 1.03787 1.16884
 H1264 H 0.08555 1.03426 1.12670
 H1265 H 0.07663 0.96764 1.12803
 H1266 H 0.11027 0.99692 1.14426
 C1267 C 0.58642 0.50282 0.63353
 C1268 C 0.58343 0.51997 0.65287
 C1269 C 0.57968 0.50032 0.66956
 C1270 C 0.58283 0.48316 0.65052
 C1271 C 0.56085 0.50379 0.62966
 C1272 C 0.55708 0.48414 0.64633
 C1273 C 0.55767 0.52097 0.64868
 C1274 C 0.55410 0.50130 0.66574
 C1275 C 0.59098 0.49862 0.69134
 C1276 C 0.60126 0.49772 0.70875
 C1277 C 0.55074 0.50533 0.60727
 C1278 C 0.54261 0.50593 0.58873
 H1279 H 0.59959 0.50350 0.62005
 H1280 H 0.59440 0.53468 0.65585
 H1281 H 0.59327 0.46758 0.65156
 H1282 H 0.54612 0.46943 0.64335
 H1283 H 0.54724 0.53655 0.64762
 H1284 H 0.54096 0.50061 0.67925
 C1285 C 0.44636 -0.02007 0.65027
 C1286 C 0.44942 -0.00085 0.66750
 C1287 C 0.42391 -0.00114 0.67234
 C1288 C 0.42068 -0.02034 0.65550
 C1289 C 0.44210 -0.00237 0.63166
 C1290 C 0.41660 -0.00266 0.63655
 C1291 C 0.44534 0.01684 0.64849
 C1292 C 0.41967 0.01654 0.65371
 C1293 C 0.41286 -0.00056 0.69453
 C1294 C 0.40259 -0.00028 0.71218
 C1295 C 0.45186 -0.00293 0.60888
 C1296 C 0.45982 -0.00319 0.59008
 H1297 H 0.45742 -0.03514 0.64856
 H1298 H 0.46276 -0.00009 0.68049
 H1299 H 0.41043 -0.03563 0.65867
 H1300 H 0.40322 -0.00342 0.62359
 H1301 H 0.45559 0.03212 0.64530
 H1302 H 0.40860 0.03161 0.65540
 C1303 C -0.05936 0.51563 1.14463
 C1304 C -0.08497 0.51516 1.15014
 C1305 C -0.08027 0.49833 1.16943
 C1306 C -0.05482 0.49880 1.16430
 C1307 C -0.06248 0.49568 1.12866
 C1308 C -0.05776 0.47883 1.14794
 C1309 C -0.08792 0.49521 1.13384
 C1310 C -0.08338 0.47839 1.15345
 C1311 C -0.09104 0.49965 1.19173
 C1312 C -0.10101 0.50045 1.20953
 C1313 C -0.05283 0.49440 1.10586
 C1314 C -0.04487 0.49367 1.08708
 H1315 H -0.04938 0.53093 1.14069
 H1316 H -0.09625 0.53013 1.15132
 H1317 H -0.04136 0.50031 1.17709
 H1318 H -0.04649 0.46386 1.14674
 H1319 H -0.10141 0.49370 1.12108
 H1320 H -0.09336 0.46308 1.15738
 C1321 C -0.06308 0.48976 0.35725
 C1322 C -0.08883 0.48813 0.35343
 C1323 C -0.08681 0.50585 0.33444
 C1324 C -0.06121 0.50747 0.33796
 C1325 C -0.06744 0.50886 0.37412
 C1326 C -0.06541 0.52660 0.35514
 C1327 C -0.09304 0.50725 0.37063
 C1328 C -0.09119 0.52497 0.35129
 C1329 C -0.09722 0.50398 0.31217
 C1330 C -0.10536 0.50242 0.29366
 C1331 C -0.05635 0.50994 0.39613
 C1332 C -0.04699 0.51006 0.41414
 H1333 H -0.05139 0.47530 0.35991
 H1334 H -0.09856 0.47229 0.35250
 H1335 H -0.04822 0.50752 0.32429
 H1336 H -0.05567 0.54243 0.35608
 H1337 H -0.10602 0.50719 0.38432
 H1338 H -0.10289 0.53942 0.34859
 C1339 C 0.40632 1.00999 -0.12857
 C1340 C 0.41146 1.02538 -0.14931
 C1341 C 0.41282 1.00441 -0.16428
 C1342 C 0.40752 0.98901 -0.14392
 C1343 C 0.43180 1.00765 -0.12443
 C1344 C 0.43314 0.98670 -0.13944
 C1345 C 0.43711 1.02304 -0.14479
 C1346 C 0.43830 1.00207 -0.16010
 C1347 C 0.40270 1.00236 -0.18668
 C1348 C 0.39486 1.00062 -0.20531
 C1349 C 0.44274 1.00884 -0.10234
 C1350 C 0.45202 1.00906 -0.08430
 H1351 H 0.39329 1.01329 -0.11537
 H1352 H 0.40241 1.04126 -0.15362
 H1353 H 0.39525 0.97499 -0.14380
 H1354 H 0.44218 0.97080 -0.13516
 H1355 H 0.44938 1.03706 -0.14492
 H1356 H 0.45135 0.99877 -0.17329
 C1357 C 0.59309 0.49198 -0.13006
 C1358 C 0.58707 0.47633 -0.14988
 C1359 C 0.58731 0.49680 -0.16596
 C1360 C 0.59351 0.51246 -0.14652
 C1361 C 0.56779 0.49625 -0.12581
 C1362 C 0.56805 0.51671 -0.14191
 C1363 C 0.56160 0.48060 -0.14526
 C1364 C 0.56202 0.50106 -0.16168
 C1365 C 0.59777 0.49717 -0.18852
 C1366 C 0.60591 0.49750 -0.20727
 C1367 C 0.55659 0.49611 -0.10360
 C1368 C 0.54712 0.49618 -0.08547
 H1369 H 0.60574 0.48824 -0.11680
 H1370 H 0.59502 0.45973 -0.15341
 H1371 H 0.60676 0.52556 -0.14729
 H1372 H 0.56010 0.53332 -0.13839
 H1373 H 0.54836 0.46750 -0.14451
 H1374 H 0.54935 0.50481 -0.17492
 C1375 C 0.09183 -0.00656 0.36904
 C1376 C 0.08616 -0.02238 0.34924
 C1377 C 0.08600 -0.00193 0.33312
 C1378 C 0.09184 0.01389 0.35255
 C1379 C 0.06644 -0.00281 0.37325
 C1380 C 0.06629 0.01762 0.35712
 C1381 C 0.06061 -0.01863 0.35382
 C1382 C 0.06062 0.00181 0.33737
 C1383 C 0.09647 -0.00134 0.31057
 C1384 C 0.10461 -0.00082 0.29182
 C1385 C 0.05519 -0.00310 0.39544
 C1386 C 0.04564 -0.00310 0.41353
 H1387 H 0.10453 -0.01001 0.38232
 H1388 H 0.09446 -0.03882 0.34574
 H1389 H 0.10480 0.02727 0.35177
 H1390 H 0.05799 0.03407 0.36059
 H1391 H 0.04765 -0.03201 0.35458
 H1392 H 0.04790 0.00527 0.32410
 C1393 C 0.13321 1.08280 1.00426
 C1394 C 0.15203 1.08027 1.02206
 C1395 C 0.16928 1.07653 1.00285
 C1396 C 0.15076 1.07922 0.98505
 C1397 C 0.12961 1.05725 1.00546
 C1398 C 0.14684 1.05350 0.98625
 C1399 C 0.14810 1.05454 1.02329
 C1400 C 0.16574 1.05098 1.00406
 C1401 C 0.19088 1.08812 1.00157
 C1402 C 0.20810 1.09869 1.00096
 C1403 C 0.10731 1.04700 1.00650
 C1404 C 0.08881 1.03884 1.00669
 H1405 H 0.11959 1.09575 1.00440
 H1406 H 0.15445 1.09142 1.03677
 H1407 H 0.15213 1.08947 0.96930
 H1408 H 0.14441 1.04235 0.97154
 H1409 H 0.14670 1.04430 1.03904
 H1410 H 0.17939 1.03807 1.00392
 C1411 C 0.63774 0.57321 0.48550
 C1412 C 0.64715 0.59064 0.50212
 C1413 C 0.66963 0.57758 0.50238
 C1414 C 0.66056 0.56029 0.48573
 C1415 C 0.62970 0.55894 0.50579
 C1416 C 0.65216 0.54583 0.50605
 C1417 C 0.63879 0.57623 0.52242
 C1418 C 0.66162 0.56332 0.52268
 C1419 C 0.69138 0.58885 0.50074
 C1420 C 0.70871 0.59922 0.49995
 C1421 C 0.60729 0.54898 0.50725
 C1422 C 0.58873 0.54096 0.50776
 H1423 H 0.62763 0.57719 0.47025
 H1424 H 0.64536 0.60920 0.50044
 H1425 H 0.66979 0.55389 0.47065
 H1426 H 0.65390 0.52727 0.50773
 H1427 H 0.62958 0.58266 0.53750
 H1428 H 0.67175 0.55936 0.53792
 C1429 C 0.64598 0.44046 0.01410
 C1430 C 0.65086 0.41489 0.01234
 C1431 C 0.66978 0.41994 -0.00491
 C1432 C 0.66525 0.44536 -0.00316
 C1433 C 0.62938 0.43862 -0.00557
 C1434 C 0.64826 0.44370 -0.02284
 C1435 C 0.63395 0.41321 -0.00732
 C1436 C 0.65317 0.41811 -0.02457
 C1437 C 0.69186 0.40871 -0.00450
 C1438 C 0.70946 0.39840 -0.00423
 C1439 C 0.60674 0.44871 -0.00568
 C1440 C 0.58809 0.45695 -0.00542
 H1441 H 0.64274 0.44975 0.03001
 H1442 H 0.65219 0.40294 0.02683
 H1443 H 0.67837 0.45844 -0.00144
 H1444 H 0.64691 0.45564 -0.03733
 H1445 H 0.62086 0.40010 -0.00904
 H1446 H 0.65640 0.40881 -0.04048
 C1447 C 0.14616 -0.05540 0.47780
 C1448 C 0.16309 -0.05182 0.49723
 C1449 C 0.16852 -0.07714 0.49717
 C1450 C 0.15196 -0.08088 0.47776
 C1451 C 0.12748 -0.05999 0.49544
 C1452 C 0.13295 -0.08530 0.49538
 C1453 C 0.14403 -0.05625 0.51485
 C1454 C 0.14982 -0.08172 0.51479
 C1455 C 0.19101 -0.08750 0.49812
 C1456 C 0.20897 -0.09714 0.49875
 C1457 C 0.10457 -0.05057 0.49473
 C1458 C 0.08579 -0.04264 0.49451
 H1459 H 0.14437 -0.04450 0.46256
 H1460 H 0.17573 -0.03817 0.49802
 H1461 H 0.15550 -0.09110 0.46250
 H1462 H 0.12033 -0.09897 0.49459
 H1463 H 0.14049 -0.04603 0.53011
 H1464 H 0.15159 -0.09262 0.53003
 C1465 C 0.37010 -0.08957 0.50701
 C1466 C 0.35003 -0.08511 0.52344
 C1467 C 0.33431 -0.08257 0.50304
 C1468 C 0.35403 -0.08718 0.48660
 C1469 C 0.37446 -0.06412 0.50577
 C1470 C 0.35872 -0.06159 0.48538
 C1471 C 0.35473 -0.05950 0.52221
 C1472 C 0.33868 -0.05712 0.50180
 C1473 C 0.31182 -0.09263 0.50143
 C1474 C 0.29324 -0.10067 0.50015
 C1475 C 0.39677 -0.05361 0.50691
 C1476 C 0.41504 -0.04476 0.50734
 H1477 H 0.38325 -0.10282 0.50918
 H1478 H 0.34622 -0.09491 0.53908
 H1479 H 0.35353 -0.09866 0.47192
 H1480 H 0.36251 -0.05180 0.46973
 H1481 H 0.35523 -0.04802 0.53688
 H1482 H 0.32554 -0.04387 0.49963
 C1483 C -0.14734 0.43249 1.02048
 C1484 C -0.16454 0.43650 1.00128
 C1485 C -0.16809 0.41095 0.99990
 C1486 C -0.15122 0.40676 1.01909
 C1487 C -0.12840 0.43039 1.00264
 C1488 C -0.13192 0.40483 1.00127
 C1489 C -0.14529 0.43455 0.98346
 C1490 C -0.14915 0.40885 0.98207
 C1491 C -0.19041 0.40052 0.99823
 C1492 C -0.20897 0.39244 0.99683
 C1493 C -0.10636 0.44147 1.00379
 C1494 C -0.08831 0.45075 1.00425
 H1495 H -0.14640 0.44231 1.03629
 H1496 H -0.17817 0.44944 1.00125
 H1497 H -0.15387 0.39521 1.03373
 H1498 H -0.11828 0.39190 1.00129
 H1499 H -0.14266 0.44610 0.96882
 H1500 H -0.15009 0.39903 0.96625
 C1501 C -0.14240 0.56814 0.47788
 C1502 C -0.16154 0.56208 0.49485
 C1503 C -0.16606 0.58730 0.49846
 C1504 C -0.14726 0.59353 0.48149
 C1505 C -0.12572 0.56851 0.49756
 C1506 C -0.13020 0.59373 0.50118
 C1507 C -0.14453 0.56230 0.51452
 C1508 C -0.14937 0.58767 0.51815
 C1509 C -0.18872 0.59731 0.49903
 C1510 C -0.20755 0.60509 0.49953
 C1511 C -0.10343 0.55767 0.49723
 C1512 C -0.08527 0.54841 0.49715
 H1513 H -0.13928 0.55999 0.46132
 H1514 H -0.17468 0.54918 0.49225
 H1515 H -0.14865 0.60650 0.46792
 H1516 H -0.11704 0.60662 0.50377
 H1517 H -0.14317 0.54933 0.52810
 H1518 H -0.15250 0.59582 0.53470
 C1519 C 0.35573 1.06534 -0.01934
 C1520 C 0.33776 1.06172 -0.00049
 C1521 C 0.33331 1.08723 -0.00022
 C1522 C 0.35095 1.09101 -0.01908
 C1523 C 0.37366 1.06847 -0.00110
 C1524 C 0.36925 1.09399 -0.00084
 C1525 C 0.35601 1.06471 0.01775
 C1526 C 0.35123 1.09037 0.01802
 C1527 C 0.31063 1.09721 0.00033
 C1528 C 0.29178 1.10493 0.00081
 C1529 C 0.39594 1.05761 -0.00142
 C1530 C 0.41407 1.04829 -0.00150
 H1531 H 0.35784 1.05492 -0.03471
 H1532 H 0.32456 1.04857 -0.00033
 H1533 H 0.34859 1.10196 -0.03421
 H1534 H 0.38247 1.10712 -0.00099
 H1535 H 0.35834 1.05377 0.03288
 H1536 H 0.34912 1.10079 0.03339
 C1537 C -0.01287 1.14396 1.05458
 C1538 C -0.01326 1.14808 1.08039
 C1539 C 0.00400 1.16696 1.07686
 C1540 C 0.00439 1.16321 1.05122
 C1541 C 0.00682 1.12728 1.05782
 C1542 C 0.02410 1.14613 1.05427
 C1543 C 0.00643 1.13107 1.08346
 C1544 C 0.02369 1.15026 1.08010
 C1545 C 0.00259 1.18861 1.08827
 C1546 C 0.00183 1.20593 1.09861
 C1547 C 0.00795 1.10498 1.04767
 C1548 C 0.00822 1.08649 1.03958
 H1549 H -0.02789 1.14108 1.04395
 H1550 H -0.02864 1.14915 1.09122
 H1551 H 0.00350 1.17670 1.03812
 H1552 H 0.03948 1.14503 1.04344
 H1553 H 0.00732 1.11762 1.09659
 H1554 H 0.03870 1.15313 1.09073
 C1555 C 0.48540 0.64533 0.55609
 C1556 C 0.48526 0.64997 0.58180
 C1557 C 0.50215 0.66907 0.57767
 C1558 C 0.50229 0.66481 0.55212
 C1559 C 0.50541 0.62904 0.55942
 C1560 C 0.52232 0.64813 0.55527
 C1561 C 0.50527 0.63335 0.58496
 C1562 C 0.52215 0.65277 0.58099
 C1563 C 0.50060 0.69093 0.58871
 C1564 C 0.49986 0.70837 0.59886
 C1565 C 0.50685 0.60658 0.54962
 C1566 C 0.50741 0.58802 0.54168
 H1567 H 0.47031 0.64198 0.54572
 H1568 H 0.46999 0.65100 0.59280
 H1569 H 0.50101 0.67801 0.53877
 H1570 H 0.53759 0.64707 0.54427
 H1571 H 0.50654 0.62018 0.59835
 H1572 H 0.53724 0.65611 0.59136
 C1573 C 0.01322 0.64670 0.44142
 C1574 C 0.01143 0.65210 0.41584
 C1575 C -0.00537 0.67114 0.42137
 C1576 C -0.00358 0.66610 0.44680
 C1577 C -0.00677 0.63056 0.43938
 C1578 C -0.02359 0.64958 0.44494
 C1579 C -0.00855 0.63564 0.41396
 C1580 C -0.02536 0.65500 0.41933
 C1581 C -0.00451 0.69331 0.41048
 C1582 C -0.00385 0.71098 0.40039
 C1583 C -0.00715 0.60787 0.44915
 C1584 C -0.00695 0.58920 0.45722
 H1585 H 0.02909 0.64299 0.45060
 H1586 H 0.02587 0.65341 0.40378
 H1587 H -0.00152 0.67889 0.46015
 H1588 H -0.03802 0.64823 0.45699
 H1589 H -0.01061 0.62288 0.40058
 H1590 H -0.04123 0.65871 0.41014
 C1591 C 0.49584 1.13458 -0.08518
 C1592 C 0.47791 1.15346 -0.08220
 C1593 C 0.49692 1.17020 -0.07766
 C1594 C 0.51486 1.15164 -0.08079
 C1595 C 0.49438 1.12967 -0.05968
 C1596 C 0.51340 1.14640 -0.05512
 C1597 C 0.47643 1.14821 -0.05652
 C1598 C 0.49547 1.16533 -0.05215
 C1599 C 0.49834 1.19236 -0.08851
 C1600 C 0.49931 1.21006 -0.09853
 C1601 C 0.49337 1.10700 -0.04988
 C1602 C 0.49311 1.08836 -0.04176
 H1603 H 0.49595 1.12170 -0.09864
 H1604 H 0.46333 1.15665 -0.09346
 H1605 H 0.53069 1.15332 -0.09086
 H1606 H 0.52798 1.14321 -0.04388
 H1607 H 0.46060 1.14650 -0.04646
 H1608 H 0.49536 1.17824 -0.03871
 C1609 C 0.50167 0.37055 -0.09076
 C1610 C 0.52140 0.35342 -0.09334
 C1611 C 0.50564 0.33461 -0.08497
 C1612 C 0.48590 0.35139 -0.08256
 C1613 C 0.50862 0.37441 -0.06615
 C1614 C 0.49287 0.35558 -0.05782
 C1615 C 0.52837 0.35765 -0.06855
 C1616 C 0.51259 0.33849 -0.06037
 C1617 C 0.50373 0.31230 -0.09511
 C1618 C 0.50212 0.29381 -0.10310
 C1619 C 0.50963 0.39648 -0.05536
 C1620 C 0.50962 0.41453 -0.04621
 H1621 H 0.49722 0.38398 -0.10315
 H1622 H 0.53310 0.35228 -0.10807
 H1623 H 0.46842 0.34859 -0.08842
 H1624 H 0.48116 0.35668 -0.04309
 H1625 H 0.54585 0.36046 -0.06268
 H1626 H 0.51704 0.32506 -0.04797
 C1627 C 0.00095 -0.12839 0.40720
 C1628 C 0.01984 -0.14662 0.40671
 C1629 C 0.00230 -0.16442 0.41355
 C1630 C -0.01659 -0.14655 0.41388
 C1631 C 0.00564 -0.12466 0.43239
 C1632 C -0.01188 -0.14249 0.43920
 C1633 C 0.02454 -0.14253 0.43207
 C1634 C 0.00698 -0.16067 0.43873
 C1635 C 0.00023 -0.18673 0.40341
 C1636 C -0.00149 -0.20523 0.39547
 C1637 C 0.00684 -0.10261 0.44321
 C1638 C 0.00699 -0.08457 0.45237
 H1639 H -0.00148 -0.11487 0.39435
 H1640 H 0.03286 -0.14857 0.39321
 H1641 H -0.03352 -0.14843 0.40630
 H1642 H -0.02491 -0.14058 0.45269
 H1643 H 0.04147 -0.14064 0.43966
 H1644 H 0.00942 -0.17419 0.45159
 C1645 C 0.50020 -0.13082 0.59222
 C1646 C 0.48202 -0.14906 0.58889
 C1647 C 0.50087 -0.16664 0.58542
 C1648 C 0.51906 -0.14877 0.58891
 C1649 C 0.50042 -0.12634 0.56659
 C1650 C 0.51927 -0.14393 0.56312
 C1651 C 0.48223 -0.14422 0.56311
 C1652 C 0.50109 -0.16214 0.55979
 C1653 C 0.50107 -0.18924 0.59557
 C1654 C 0.50116 -0.20798 0.60356
 C1655 C 0.50015 -0.10401 0.55581
 C1656 C 0.49991 -0.08577 0.54671
 H1657 H 0.49984 -0.11768 0.60543
 H1658 H 0.46671 -0.15142 0.59961
 H1659 H 0.53421 -0.15089 0.59964
 H1660 H 0.53458 -0.14158 0.55240
 H1661 H 0.46709 -0.14211 0.55238
 H1662 H 0.50145 -0.17526 0.54657
 C1663 C -0.00834 0.34851 1.05345
 C1664 C 0.01320 0.33719 1.06308
 C1665 C -0.00021 0.33056 1.08447
 C1666 C -0.02174 0.34154 1.07500
 C1667 C -0.00184 0.37053 1.06500
 C1668 C -0.01526 0.36392 1.08639
 C1669 C 0.01970 0.35955 1.07447
 C1670 C 0.00630 0.35257 1.09604
 C1671 C 0.00070 0.30813 1.09494
 C1672 C 0.00139 0.28949 1.10312
 C1673 C -0.00266 0.39269 1.05393
 C1674 C -0.00322 0.41084 1.04467
 H1675 H -0.01437 0.34707 1.03583
 H1676 H 0.02492 0.32596 1.05361
 H1677 H -0.03877 0.33389 1.07535
 H1678 H -0.02698 0.37516 1.09585
 H1679 H 0.03673 0.36720 1.07412
 H1680 H 0.01233 0.35399 1.11367
 C1681 C 0.74287 0.30948 0.10231
 C1682 C 0.74607 0.33449 0.09569
 C1683 C 0.76210 0.32726 0.07641
 C1684 C 0.75888 0.30234 0.08275
 C1685 C 0.76327 0.31104 0.11803
 C1686 C 0.77935 0.30375 0.09881
 C1687 C 0.76648 0.33596 0.11169
 C1688 C 0.78254 0.32887 0.09208
 C1689 C 0.75991 0.33693 0.05357
 C1690 C 0.75632 0.34573 0.03546
 C1691 C 0.76296 0.30194 0.14123
 C1692 C 0.76197 0.29414 0.16015
 H1693 H 0.72651 0.30148 0.10672
 H1694 H 0.73233 0.34723 0.09421
 H1695 H 0.75577 0.28858 0.07064
 H1696 H 0.79306 0.29099 0.10036
 H1697 H 0.76957 0.34972 0.12380
 H1698 H 0.79887 0.33689 0.08762
 C1699 C 0.24393 0.82557 0.61279
 C1700 C 0.25975 0.84401 0.60323
 C1701 C 0.26285 0.83025 0.58151
 C1702 C 0.24700 0.81195 0.59082
 C1703 C 0.26453 0.81332 0.62280
 C1704 C 0.26763 0.79953 0.60111
 C1705 C 0.28040 0.83163 0.61354
 C1706 C 0.28350 0.81802 0.59143
 C1707 C 0.26049 0.84028 0.55887
 C1708 C 0.25699 0.84938 0.54090
 C1709 C 0.26437 0.80381 0.64581
 C1710 C 0.26329 0.79565 0.66455
 H1711 H 0.22766 0.82864 0.62177
 H1712 H 0.25649 0.86242 0.60388
 H1713 H 0.23327 0.80390 0.58127
 H1714 H 0.27088 0.78112 0.60048
 H1715 H 0.29412 0.83966 0.62314
 H1716 H 0.29974 0.81499 0.58239
 C1717 C 0.75723 0.66776 0.61659
 C1718 C 0.73761 0.66671 0.59961
 C1719 C 0.75365 0.67519 0.58083
 C1720 C 0.77330 0.67609 0.59749
 C1721 C 0.75066 0.69228 0.62156
 C1722 C 0.76673 0.70082 0.60284
 C1723 C 0.73103 0.69136 0.60488
 C1724 C 0.74707 0.69972 0.58577
 C1725 C 0.75395 0.66463 0.55862
 C1726 C 0.75240 0.65473 0.54108
 C1727 C 0.74870 0.70140 0.64436
 C1728 C 0.74724 0.70882 0.66318
 H1729 H 0.76131 0.65471 0.62951
 H1730 H 0.72564 0.65255 0.59804
 H1731 H 0.79069 0.66975 0.59416
 H1732 H 0.77867 0.71499 0.60449
 H1733 H 0.71363 0.69768 0.60818
 H1734 H 0.74298 0.71275 0.57283
 C1735 C 0.25700 0.16835 0.11730
 C1736 C 0.23719 0.16741 0.10054
 C1737 C 0.25315 0.17547 0.08151
 C1738 C 0.27299 0.17626 0.09796
 C1739 C 0.25084 0.19301 0.12209
 C1740 C 0.26683 0.20114 0.10312
 C1741 C 0.23102 0.19220 0.10563
 C1742 C 0.24697 0.20014 0.08627
 C1743 C 0.25315 0.16470 0.05940
 C1744 C 0.25148 0.15467 0.04194
 C1745 C 0.24926 0.20236 0.14482
 C1746 C 0.24808 0.20992 0.16360
 H1747 H 0.26104 0.15537 0.13031
 H1748 H 0.22500 0.15340 0.09924
 H1749 H 0.29025 0.16964 0.09452
 H1750 H 0.27899 0.21515 0.10449
 H1751 H 0.21374 0.19879 0.10904
 H1752 H 0.24293 0.21309 0.07324
 C1753 C 0.24031 0.19998 0.89950
 C1754 C 0.24443 0.17458 0.90376
 C1755 C 0.25931 0.18036 0.92399
 C1756 C 0.25517 0.20565 0.92004
 C1757 C 0.26143 0.20048 0.88422
 C1758 C 0.27637 0.20635 0.90437
 C1759 C 0.26556 0.17520 0.88823
 C1760 C 0.28046 0.18083 0.90873
 C1761 C 0.25686 0.16811 0.94545
 C1762 C 0.25353 0.15701 0.96228
 C1763 C 0.26158 0.21073 0.86161
 C1764 C 0.26079 0.21823 0.84264
 H1765 H 0.22380 0.20794 0.89547
 H1766 H 0.23127 0.16139 0.90371
 H1767 H 0.25090 0.21802 0.93338
 H1768 H 0.28950 0.21956 0.90432
 H1769 H 0.26981 0.16278 0.87492
 H1770 H 0.29695 0.17283 0.91279
 C1771 C 0.76233 0.67657 0.38737
 C1772 C 0.77937 0.67981 0.40670
 C1773 C 0.75952 0.68161 0.42353
 C1774 C 0.74250 0.67823 0.40446
 C1775 C 0.76116 0.70223 0.38399
 C1776 C 0.74133 0.70400 0.40083
 C1777 C 0.77825 0.70570 0.40298
 C1778 C 0.75834 0.70728 0.42023
 C1779 C 0.75731 0.66908 0.44485
 C1780 C 0.75413 0.65774 0.46155
 C1781 C 0.76105 0.71269 0.36148
 C1782 C 0.76005 0.72031 0.34257
 H1783 H 0.76395 0.66405 0.37364
 H1784 H 0.79500 0.66973 0.40938
 H1785 H 0.72778 0.66680 0.40526
 H1786 H 0.72567 0.71405 0.39818
 H1787 H 0.79295 0.71714 0.40208
 H1788 H 0.75670 0.71975 0.43400
 C1789 C 0.27075 0.82530 0.38671
 C1790 C 0.25059 0.83619 0.39949
 C1791 C 0.25806 0.82402 0.42127
 C1792 C 0.27826 0.81326 0.40881
 C1793 C 0.25578 0.80509 0.38128
 C1794 C 0.26327 0.79284 0.40300
 C1795 C 0.23563 0.81587 0.39379
 C1796 C 0.24309 0.80381 0.41583
 C1797 C 0.25789 0.83562 0.44308
 C1798 C 0.25584 0.84632 0.46022
 C1799 C 0.25397 0.79514 0.35874
 C1800 C 0.25235 0.78738 0.34005
 H1801 H 0.28207 0.83408 0.37449
 H1802 H 0.24540 0.85415 0.39822
 H1803 H 0.29579 0.81228 0.41522
 H1804 H 0.26843 0.77487 0.40419
 H1805 H 0.21809 0.81688 0.38743
 H1806 H 0.23175 0.79504 0.42804
 C1807 C 0.77584 0.31614 0.88731
 C1808 C 0.75988 0.33493 0.89619
 C1809 C 0.75737 0.32191 0.91867
 C1810 C 0.77334 0.30325 0.91016
 C1811 C 0.75521 0.30363 0.87833
 C1812 C 0.75270 0.29056 0.90077
 C1813 C 0.73929 0.32229 0.88691
 C1814 C 0.73677 0.30939 0.90963
 C1815 C 0.75710 0.33305 0.94075
 C1816 C 0.75489 0.34332 0.95816
 C1817 C 0.75356 0.29393 0.85564
 C1818 C 0.75220 0.28623 0.83688
 H1819 H 0.79190 0.31886 0.87788
 H1820 H 0.76289 0.35329 0.89449
 H1821 H 0.78736 0.29553 0.91993
 H1822 H 0.74967 0.27220 0.90243
 H1823 H 0.72525 0.33005 0.87719
 H1824 H 0.72068 0.30666 0.91903
 C1825 C 0.79983 0.40128 0.23680
 C1826 C 0.79517 0.41806 0.25624
 C1827 C 0.82063 0.42253 0.25762
 C1828 C 0.82539 0.40607 0.23820
 C1829 C 0.80278 0.38226 0.25433
 C1830 C 0.82822 0.38679 0.25570
 C1831 C 0.79795 0.39864 0.27380
 C1832 C 0.82360 0.40351 0.27516
 C1833 C 0.83175 0.44448 0.25787
 C1834 C 0.84221 0.46174 0.25603
 C1835 C 0.79349 0.35960 0.25201
 C1836 C 0.78627 0.34081 0.25007
 H1837 H 0.79003 0.40014 0.22097
 H1838 H 0.78169 0.43115 0.25654
 H1839 H 0.83680 0.40932 0.22353
 H1840 H 0.84174 0.37374 0.25539
 H1841 H 0.78653 0.39531 0.28843
 H1842 H 0.83343 0.40467 0.29097
 C1843 C 0.30303 0.89958 0.73629
 C1844 C 0.29758 0.91683 0.75511
 C1845 C 0.32297 0.92103 0.75774
 C1846 C 0.32854 0.90410 0.73893
 C1847 C 0.30482 0.88091 0.75435
 C1848 C 0.33019 0.88516 0.75697
 C1849 C 0.29919 0.89777 0.77320
 C1850 C 0.32478 0.90236 0.77581
 C1851 C 0.33421 0.94292 0.75823
 C1852 C 0.34475 0.96016 0.75675
 C1853 C 0.29527 0.85833 0.75220
 C1854 C 0.28775 0.83961 0.75063
 H1855 H 0.29405 0.89820 0.71999
 H1856 H 0.28427 0.93007 0.75443
 H1857 H 0.34074 0.90690 0.72482
 H1858 H 0.34354 0.87194 0.75764
 H1859 H 0.28698 0.89489 0.78728
 H1860 H 0.33377 0.90374 0.79209
 C1861 C 0.20321 0.90108 0.27872
 C1862 C 0.20617 0.91873 0.25937
 C1863 C 0.18049 0.92253 0.25939
 C1864 C 0.17731 0.90529 0.27868
 C1865 C 0.20024 0.88271 0.26092
 C1866 C 0.17456 0.88658 0.26092
 C1867 C 0.20339 0.89995 0.24164
 C1868 C 0.17759 0.90408 0.24164
 C1869 C 0.16845 0.94407 0.25721
 C1870 C 0.15752 0.96097 0.25401
 C1871 C 0.21033 0.86011 0.26082
 C1872 C 0.21777 0.84119 0.25993
 H1873 H 0.21389 0.89956 0.29397
 H1874 H 0.21904 0.93220 0.25875
 H1875 H 0.16648 0.90774 0.29390
 H1876 H 0.16165 0.87315 0.26153
 H1877 H 0.21419 0.89752 0.22639
 H1878 H 0.16693 0.90550 0.22636
 C1879 C 0.71005 0.40085 0.77240
 C1880 C 0.70363 0.41377 0.75043
 C1881 C 0.68047 0.41940 0.76096
 C1882 C 0.68664 0.40688 0.78293
 C1883 C 0.69985 0.37940 0.76259
 C1884 C 0.67669 0.38503 0.77312
 C1885 C 0.69364 0.39199 0.74068
 C1886 C 0.67037 0.39788 0.75119
 C1887 C 0.66872 0.44109 0.75865
 C1888 C 0.65808 0.45815 0.75528
 C1889 C 0.70991 0.35677 0.76229
 C1890 C 0.71749 0.33794 0.76094
 H1891 H 0.72649 0.40179 0.78114
 H1892 H 0.71460 0.42583 0.74109
 H1893 H 0.68366 0.41327 0.80028
 H1894 H 0.66571 0.37297 0.78243
 H1895 H 0.69658 0.38565 0.72329
 H1896 H 0.65393 0.39684 0.74243
 C1897 C 0.69798 0.60194 0.77211
 C1898 C 0.67245 0.59633 0.77280
 C1899 C 0.67678 0.57792 0.75521
 C1900 C 0.70212 0.58313 0.75450
 C1901 C 0.69355 0.61873 0.75267
 C1902 C 0.69786 0.60031 0.73508
 C1903 C 0.66822 0.61348 0.75337
 C1904 C 0.67240 0.59477 0.73580
 C1905 C 0.66643 0.55564 0.75521
 C1906 C 0.65671 0.53805 0.75338
 C1907 C 0.70256 0.64155 0.75088
 C1908 C 0.70996 0.66034 0.74947
 H1909 H 0.70862 0.60520 0.78704
 H1910 H 0.66195 0.59443 0.78835
 H1911 H 0.71594 0.57041 0.75503
 H1912 H 0.70834 0.60220 0.71952
 H1913 H 0.65437 0.62617 0.75283
 H1914 H 0.66177 0.59159 0.72084
 C1915 C 0.19748 0.10212 0.23452
 C1916 C 0.20156 0.08461 0.25368
 C1917 C 0.17611 0.07995 0.25458
 C1918 C 0.17191 0.09713 0.23542
 C1919 C 0.19375 0.12039 0.25238
 C1920 C 0.16831 0.11568 0.25327
 C1921 C 0.19801 0.10328 0.27158
 C1922 C 0.17236 0.09822 0.27245
 C1923 C 0.16532 0.05789 0.25445
 C1924 C 0.15532 0.04047 0.25259
 C1925 C 0.20320 0.14304 0.25081
 C1926 C 0.21085 0.16173 0.24957
 H1927 H 0.20786 0.10399 0.21889
 H1928 H 0.21511 0.07159 0.25392
 H1929 H 0.16106 0.09436 0.22054
 H1930 H 0.15474 0.12868 0.25302
 H1931 H 0.20887 0.10611 0.28643
 H1932 H 0.16197 0.09634 0.28807
 C1933 C 0.30596 0.10465 0.74705
 C1934 C 0.33139 0.09866 0.74597
 C1935 C 0.32762 0.08072 0.76452
 C1936 C 0.30229 0.08642 0.76559
 C1937 C 0.31091 0.12190 0.76549
 C1938 C 0.30708 0.10404 0.78409
 C1939 C 0.33622 0.11618 0.76441
 C1940 C 0.33260 0.09794 0.78299
 C1941 C 0.33770 0.05820 0.76248
 C1942 C 0.34701 0.04041 0.75914
 C1943 C 0.30166 0.14487 0.76501
 C1944 C 0.29382 0.16364 0.76381
 H1945 H 0.29496 0.10765 0.73222
 H1946 H 0.34147 0.09623 0.73023
 H1947 H 0.28844 0.07395 0.76609
 H1948 H 0.29698 0.10654 0.79980
 H1949 H 0.35009 0.12863 0.76389
 H1950 H 0.34363 0.09490 0.79778
 C1951 C 0.80646 0.60619 0.28335
 C1952 C 0.80063 0.58851 0.26522
 C1953 C 0.82584 0.58266 0.26290
 C1954 C 0.83187 0.59993 0.28099
 C1955 C 0.80947 0.62394 0.26449
 C1956 C 0.83467 0.61806 0.26217
 C1957 C 0.80348 0.60664 0.24643
 C1958 C 0.82880 0.60048 0.24410
 C1959 C 0.83567 0.56006 0.26057
 C1960 C 0.84471 0.54216 0.25708
 C1961 C 0.80035 0.64697 0.26435
 C1962 C 0.79257 0.66577 0.26339
 H1963 H 0.79718 0.60883 0.29953
 H1964 H 0.78673 0.57613 0.26648
 H1965 H 0.84361 0.59689 0.29522
 H1966 H 0.84858 0.63042 0.26089
 H1967 H 0.79176 0.60964 0.23217
 H1968 H 0.83806 0.59791 0.22790
 C1969 C 0.88737 0.26194 0.17153
 C1970 C 0.90683 0.27877 0.17491
 C1971 C 0.92326 0.25882 0.17778
 C1972 C 0.90407 0.24201 0.17425
 C1973 C 0.88317 0.26148 0.19720
 C1974 C 0.89963 0.24156 0.20005
 C1975 C 0.90228 0.27836 0.20081
 C1976 C 0.91913 0.25836 0.20347
 C1977 C 0.94498 0.25606 0.16601
 C1978 C 0.96206 0.25247 0.15536
 C1979 C 0.86043 0.26191 0.20720
 C1980 C 0.84142 0.26130 0.21463
 H1981 H 0.87409 0.26340 0.15849
 H1982 H 0.91005 0.29406 0.16446
 H1983 H 0.90500 0.22702 0.16321
 H1984 H 0.89643 0.22624 0.21047
 H1985 H 0.90126 0.29333 0.21187
 H1986 H 0.93245 0.25688 0.21647
 C1987 C 0.38608 0.76436 0.67289
 C1988 C 0.40540 0.78147 0.67571
 C1989 C 0.42212 0.76176 0.67858
 C1990 C 0.40308 0.74467 0.67560
 C1991 C 0.38231 0.76420 0.69863
 C1992 C 0.39906 0.74451 0.70146
 C1993 C 0.40127 0.78136 0.70169
 C1994 C 0.41841 0.76160 0.70433
 C1995 C 0.44368 0.75903 0.66650
 C1996 C 0.46062 0.75538 0.65565
 C1997 C 0.35973 0.76434 0.70900
 C1998 C 0.34087 0.76332 0.71676
 H1999 H 0.37258 0.76548 0.66006
 H2000 H 0.40826 0.79666 0.66501
 H2001 H 0.40401 0.72953 0.66476
 H2002 H 0.39623 0.72930 0.71214
 H2003 H 0.40025 0.79647 0.71255
 H2004 H 0.43196 0.76046 0.71712
 C2005 C 0.40130 0.27127 0.79505
 C2006 C 0.40602 0.27892 0.81956
 C2007 C 0.42231 0.25886 0.82239
 C2008 C 0.41798 0.25119 0.79810
 C2009 C 0.38208 0.25635 0.80413
 C2010 C 0.39839 0.23632 0.80700
 C2011 C 0.38644 0.26400 0.82842
 C2012 C 0.40301 0.24398 0.83140
 C2013 C 0.44419 0.25872 0.83374
 C2014 C 0.46136 0.25663 0.84435
 C2015 C 0.35943 0.25441 0.79462
 C2016 C 0.34064 0.25268 0.78723
 H2017 H 0.40032 0.28246 0.77994
 H2018 H 0.40941 0.29645 0.82479
 H2019 H 0.43120 0.24600 0.78572
 H2020 H 0.39504 0.21877 0.80180
 H2021 H 0.37324 0.26918 0.84083
 H2022 H 0.40390 0.23275 0.84649
 C2023 C 0.90204 0.76712 0.29163
 C2024 C 0.90796 0.78097 0.31287
 C2025 C 0.92107 0.76055 0.32220
 C2026 C 0.91553 0.74672 0.30119
 C2027 C 0.88081 0.75839 0.30395
 C2028 C 0.89397 0.73803 0.31331
 C2029 C 0.88633 0.77223 0.32496
 C2030 C 0.89977 0.75185 0.33444
 C2031 C 0.94299 0.76016 0.33349
 C2032 C 0.96019 0.75779 0.34399
 C2033 C 0.85815 0.75658 0.29442
 C2034 C 0.83935 0.75492 0.28702
 H2035 H 0.90270 0.77335 0.27389
 H2036 H 0.91395 0.79862 0.31278
 H2037 H 0.92778 0.73627 0.29148
 H2038 H 0.88803 0.72036 0.31345
 H2039 H 0.87407 0.78265 0.33468
 H2040 H 0.89903 0.74559 0.35218
 C2041 C 0.10312 0.78277 0.30677
 C2042 C 0.08565 0.76410 0.30213
 C2043 C 0.07970 0.76337 0.32746
 C2044 C 0.09677 0.78200 0.33230
 C2045 C 0.12114 0.76447 0.31101
 C2046 C 0.11517 0.76373 0.33633
 C2047 C 0.10404 0.74587 0.30621
 C2048 C 0.09779 0.74512 0.33164
 C2049 C 0.05699 0.76129 0.33730
 C2050 C 0.03897 0.75797 0.34632
 C2051 C 0.14423 0.76407 0.30184
 C2052 C 0.16306 0.76290 0.29399
 H2053 H 0.10561 0.79827 0.29645
 H2054 H 0.07328 0.76426 0.28816
 H2055 H 0.09349 0.79687 0.34310
 H2056 H 0.12753 0.76355 0.35031
 H2057 H 0.10727 0.73097 0.29543
 H2058 H 0.09537 0.72959 0.34195
 C2059 C 0.61794 0.26197 0.83576
 C2060 C 0.59967 0.28059 0.83284
 C2061 C 0.58229 0.26238 0.82754
 C2062 C 0.60024 0.24378 0.83061
 C2063 C 0.62345 0.26373 0.81038
 C2064 C 0.60603 0.24554 0.80511
 C2065 C 0.60556 0.28237 0.80725
 C2066 C 0.58778 0.26412 0.80215
 C2067 C 0.55975 0.26019 0.83772
 C2068 C 0.54184 0.25685 0.84697
 C2069 C 0.64636 0.26336 0.80076
 C2070 C 0.66502 0.26207 0.79252
 H2071 H 0.63055 0.26107 0.84948
 H2072 H 0.59678 0.29501 0.84433
 H2073 H 0.59784 0.22786 0.84029
 H2074 H 0.60888 0.23109 0.79365
 H2075 H 0.60805 0.29826 0.79754
 H2076 H 0.57515 0.26501 0.78844
 C2077 C 0.61260 0.73691 0.67338
 C2078 C 0.59023 0.73088 0.68562
 C2079 C 0.57962 0.75281 0.67648
 C2080 C 0.60172 0.75884 0.66410
 C2081 C 0.61995 0.74968 0.69445
 C2082 C 0.60939 0.77164 0.68533
 C2083 C 0.59787 0.74364 0.70687
 C2084 C 0.58690 0.76562 0.69757
 C2085 C 0.55762 0.75324 0.66546
 C2086 C 0.54027 0.75184 0.65519
 C2087 C 0.64258 0.74768 0.70399
 C2088 C 0.66130 0.74622 0.71163
 H2089 H 0.62337 0.72507 0.66355
 H2090 H 0.58208 0.71412 0.68566
 H2091 H 0.60306 0.76516 0.64642
 H2092 H 0.61758 0.78838 0.68530
 H2093 H 0.59657 0.73731 0.72456
 H2094 H 0.57608 0.77744 0.70736
 C2095 C 0.11455 0.23738 0.17299
 C2096 C 0.09231 0.23035 0.18492
 C2097 C 0.08104 0.25211 0.17616
 C2098 C 0.10301 0.25914 0.16409
 C2099 C 0.12129 0.24994 0.19440
 C2100 C 0.11007 0.27173 0.18567
 C2101 C 0.09935 0.24291 0.20650
 C2102 C 0.08771 0.26470 0.19758
 C2103 C 0.05910 0.25202 0.16502
 C2104 C 0.04181 0.25023 0.15472
 C2105 C 0.14389 0.24841 0.20409
 C2106 C 0.16258 0.24725 0.21185
 H2107 H 0.12578 0.22612 0.16299
 H2108 H 0.08474 0.21333 0.18452
 H2109 H 0.10427 0.26587 0.14655
 H2110 H 0.11769 0.28873 0.18607
 H2111 H 0.09812 0.23616 0.22404
 H2112 H 0.07643 0.27595 0.20754
 C2113 C -0.08226 0.99777 0.86687
 C2114 C -0.07841 1.01678 0.84921
 C2115 C -0.07638 0.99896 0.83066
 C2116 C -0.08040 0.97997 0.84803
 C2117 C -0.05663 0.99597 0.87014
 C2118 C -0.05459 0.97814 0.85161
 C2119 C -0.05258 1.01498 0.85280
 C2120 C -0.05074 0.99717 0.83387
 C2121 C -0.08827 1.00026 0.80918
 C2122 C -0.09908 1.00069 0.79208
 C2123 C -0.04624 0.99453 0.89241
 C2124 C -0.03815 0.99381 0.91096
 H2125 H -0.09510 0.99796 0.88068
 H2126 H -0.08830 1.03268 0.84796
 H2127 H -0.09198 0.96559 0.84580
 H2128 H -0.04470 0.96223 0.85288
 H2129 H -0.04100 1.02936 0.85506
 H2130 H -0.03794 0.99698 0.82002
 C2131 C 0.44540 0.47996 0.35340
 C2132 C 0.41962 0.48171 0.34962
 C2133 C 0.42373 0.50060 0.33216
 C2134 C 0.44935 0.49888 0.33556
 C2135 C 0.44318 0.49792 0.37179
 C2136 C 0.44732 0.51682 0.35436
 C2137 C 0.41757 0.49963 0.36833
 C2138 C 0.42152 0.51853 0.35057
 C2139 C 0.41205 0.50170 0.31055
 C2140 C 0.40148 0.50198 0.29331
 C2141 C 0.45347 0.49659 0.39410
 C2142 C 0.46157 0.49590 0.41265
 H2143 H 0.45532 0.46409 0.35485
 H2144 H 0.40809 0.46728 0.34740
 H2145 H 0.46224 0.49862 0.32182
 H2146 H 0.45885 0.53124 0.35661
 H2147 H 0.40464 0.49988 0.38204
 H2148 H 0.41160 0.53441 0.34913
 C2149 C 0.55662 0.02558 0.35246
 C2150 C 0.58231 0.02465 0.34732
 C2151 C 0.57823 0.00566 0.33044
 C2152 C 0.55271 0.00658 0.33519
 C2153 C 0.55999 0.00768 0.37105
 C2154 C 0.55590 -0.01131 0.35418
 C2155 C 0.58550 0.00676 0.36625
 C2156 C 0.58157 -0.01222 0.34905
 C2157 C 0.58922 0.00458 0.30824
 C2158 C 0.59933 0.00392 0.29050
 C2159 C 0.55012 0.00839 0.39379
 C2160 C 0.54203 0.00841 0.41253
 H2161 H 0.54627 0.04115 0.35416
 H2162 H 0.59329 0.03943 0.34421
 H2163 H 0.53938 0.00646 0.32215
 H2164 H 0.54492 -0.02610 0.35730
 H2165 H 0.59886 0.00688 0.37926
 H2166 H 0.59192 -0.02780 0.34738
 C2167 C 0.08349 0.50402 0.86497
 C2168 C 0.08066 0.48478 0.84783
 C2169 C 0.07704 0.50241 0.82902
 C2170 C 0.08004 0.52166 0.84585
 C2171 C 0.05788 0.50400 0.86924
 C2172 C 0.05424 0.52165 0.85045
 C2173 C 0.05488 0.48475 0.85242
 C2174 C 0.05143 0.50238 0.83324
 C2175 C 0.08847 0.50153 0.80701
 C2176 C 0.09883 0.50098 0.78941
 C2177 C 0.04750 0.50453 0.89177
 C2178 C 0.03904 0.50449 0.91036
 H2179 H 0.09655 0.50472 0.87826
 H2180 H 0.09163 0.46959 0.84647
 H2181 H 0.09051 0.53683 0.84286
 H2182 H 0.04327 0.53683 0.85183
 H2183 H 0.04442 0.46957 0.85541
 H2184 H 0.03839 0.50168 0.81993
 C2185 C 0.05339 0.49596 0.64725
 C2186 C 0.07007 0.47832 0.65715
 C2187 C 0.08551 0.49755 0.66443
 C2188 C 0.06897 0.51518 0.65486
 C2189 C 0.06632 0.49505 0.62462
 C2190 C 0.08176 0.51427 0.63191
 C2191 C 0.08286 0.47739 0.63417
 C2192 C 0.09846 0.49664 0.64181
 C2193 C 0.09583 0.49905 0.68678
 C2194 C 0.10389 0.50024 0.70535
 C2195 C 0.05542 0.49409 0.60251
 C2196 C 0.04632 0.49385 0.58438
 H2197 H 0.03474 0.49564 0.64927
 H2198 H 0.06538 0.46355 0.66778
 H2199 H 0.06338 0.53075 0.66358
 H2200 H 0.08645 0.52905 0.62128
 H2201 H 0.08843 0.46183 0.62543
 H2202 H 0.11711 0.49696 0.63982
 C2203 C 0.55289 0.99658 0.14885
 C2204 C 0.57028 0.97962 0.15871
 C2205 C 0.58510 0.99944 0.16567
 C2206 C 0.56786 1.01641 0.15614
 C2207 C 0.56562 0.99594 0.12609
 C2208 C 0.58044 1.01576 0.13307
 C2209 C 0.58286 0.97895 0.13560
 C2210 C 0.59785 0.99880 0.14293
 C2211 C 0.59559 1.00148 0.18790
 C2212 C 0.60379 1.00307 0.20638
 C2213 C 0.55459 0.99446 0.10408
 C2214 C 0.54542 0.99388 0.08599
 H2215 H 0.53429 0.99563 0.15106
 H2216 H 0.56622 0.96477 0.16949
 H2217 H 0.56181 1.03185 0.16480
 H2218 H 0.58451 1.03061 0.12229
 H2219 H 0.58890 0.96351 0.12693
 H2220 H 0.61645 0.99976 0.14073
 C2221 C 0.40887 0.49437 0.13244
 C2222 C 0.41612 0.47922 0.15262
 C2223 C 0.41436 0.49972 0.16818
 C2224 C 0.40694 0.51487 0.14837
 C2225 C 0.43379 0.50009 0.12799
 C2226 C 0.43203 0.52058 0.14355
 C2227 C 0.44119 0.48494 0.14782
 C2228 C 0.43927 0.50543 0.16371
 C2229 C 0.40397 0.49956 0.19076
 C2230 C 0.39593 0.49951 0.20956
 C2231 C 0.44485 0.50028 0.10572
 C2232 C 0.45411 0.50040 0.08749
 H2233 H 0.39650 0.48983 0.11932
 H2234 H 0.40944 0.46221 0.15660
 H2235 H 0.39274 0.52717 0.14885
 H2236 H 0.43870 0.53759 0.13958
 H2237 H 0.45539 0.47264 0.14735
 H2238 H 0.45165 0.50998 0.17681
 C2239 C -0.09458 0.00106 0.63066
 C2240 C -0.09136 -0.01777 0.64871
 C2241 C -0.08809 0.00035 0.66670
 C2242 C -0.09148 0.01918 0.64903
 C2243 C -0.06895 0.00101 0.62636
 C2244 C -0.06569 0.01912 0.64437
 C2245 C -0.06557 -0.01781 0.64404
 C2246 C -0.06247 0.00030 0.66237
 C2247 C -0.09825 -0.00003 0.68940
 C2248 C -0.10602 -0.00032 0.70831
 C2249 C -0.05796 0.00133 0.60405
 C2250 C -0.04868 0.00151 0.58581
 H2251 H -0.10766 0.00139 0.61736
 H2252 H -0.10203 -0.03293 0.65074
 H2253 H -0.10226 0.03437 0.65134
 H2254 H -0.05502 0.03429 0.64235
 H2255 H -0.05479 -0.03300 0.64176
 H2256 H -0.04937 -0.00003 0.67565
 C2257 C -0.14700 0.94812 1.01635
 C2258 C -0.16561 0.95020 0.99817
 C2259 C -0.16949 0.92475 1.00028
 C2260 C -0.15128 0.92249 1.01845
 C2261 C -0.12955 0.94344 0.99754
 C2262 C -0.13350 0.91800 0.99964
 C2263 C -0.14775 0.94571 0.97935
 C2264 C -0.15201 0.92010 0.98149
 C2265 C -0.19122 0.91340 1.00142
 C2266 C -0.20852 0.90297 1.00176
 C2267 C -0.10707 0.95326 0.99619
 C2268 C -0.08837 0.96094 0.99548
 H2269 H -0.14463 0.95978 1.03066
 H2270 H -0.17910 0.96327 0.99762
 H2271 H -0.15302 0.91285 1.03453
 H2272 H -0.12005 0.90489 1.00019
 H2273 H -0.14599 0.95535 0.96326
 H2274 H -0.15435 0.90844 0.96717
 C2275 C 0.36717 0.41850 0.49901
 C2276 C 0.35018 0.42121 0.51886
 C2277 C 0.33122 0.42503 0.50172
 C2278 C 0.34791 0.42216 0.48188
 C2279 C 0.37103 0.44401 0.49908
 C2280 C 0.35209 0.44786 0.48192
 C2281 C 0.35436 0.44691 0.51893
 C2282 C 0.33501 0.45056 0.50179
 C2283 C 0.30954 0.41357 0.50279
 C2284 C 0.29227 0.40310 0.50304
 C2285 C 0.39344 0.45401 0.49776
 C2286 C 0.41207 0.46186 0.49706
 H2287 H 0.38064 0.40544 0.49782
 H2288 H 0.34911 0.41015 0.53407
 H2289 H 0.34498 0.41185 0.46666
 H2290 H 0.35318 0.45891 0.46671
 H2291 H 0.35733 0.45721 0.53415
 H2292 H 0.32151 0.46357 0.50298
 C2293 C 0.35281 0.55765 0.02376
 C2294 C 0.34722 0.58227 0.01690
 C2295 C 0.32810 0.57371 0.00197
 C2296 C 0.33332 0.54923 0.00882
 C2297 C 0.36893 0.55607 0.00331
 C2298 C 0.34984 0.54748 -0.01163
 C2299 C 0.36366 0.58054 -0.00353
 C2300 C 0.34423 0.57213 -0.01847
 C2301 C 0.30579 0.58447 0.00132
 C2302 C 0.28805 0.59452 0.00100
 C2303 C 0.39181 0.54659 0.00397
 C2304 C 0.41066 0.53884 0.00433
 H2305 H 0.35661 0.55162 0.04114
 H2306 H 0.34588 0.59669 0.02864
 H2307 H 0.32059 0.53648 0.01386
 H2308 H 0.35120 0.53306 -0.02337
 H2309 H 0.37636 0.59333 -0.00857
 H2310 H 0.34043 0.57817 -0.03586
 C2311 C -0.13655 0.08484 0.50103
 C2312 C -0.15332 0.08229 0.48136
 C2313 C -0.17241 0.07830 0.49869
 C2314 C -0.15593 0.08101 0.51835
 C2315 C -0.13220 0.05932 0.50066
 C2316 C -0.15127 0.05532 0.51801
 C2317 C -0.14866 0.05660 0.48099
 C2318 C -0.16811 0.05278 0.49832
 C2319 C -0.19439 0.08971 0.49778
 C2320 C -0.21193 0.10012 0.49733
 C2321 C -0.10963 0.04913 0.50165
 C2322 C -0.09098 0.04092 0.50225
 H2323 H -0.12334 0.09791 0.50217
 H2324 H -0.15443 0.09348 0.46626
 H2325 H -0.15919 0.09116 0.53372
 H2326 H -0.15015 0.04413 0.53311
 H2327 H -0.14539 0.04646 0.46562
 H2328 H -0.18135 0.03974 0.49719
 C2329 C 0.62991 0.09296 0.48888
 C2330 C 0.64556 0.09263 0.50973
 C2331 C 0.66577 0.08738 0.49409
 C2332 C 0.65048 0.08788 0.47325
 C2333 C 0.62625 0.06753 0.49199
 C2334 C 0.64647 0.06227 0.47635
 C2335 C 0.64157 0.06705 0.51281
 C2336 C 0.66208 0.06195 0.49720
 C2337 C 0.68802 0.09800 0.49550
 C2338 C 0.70655 0.10617 0.49675
 C2339 C 0.60430 0.05622 0.49137
 C2340 C 0.58630 0.04682 0.49155
 H2341 H 0.61645 0.10561 0.48543
 H2342 H 0.64539 0.10522 0.52347
 H2343 H 0.65437 0.09658 0.45700
 H2344 H 0.64664 0.04968 0.46262
 H2345 H 0.63771 0.05835 0.52908
 H2346 H 0.67553 0.04928 0.50065
 C2347 C 0.12689 0.58918 0.99303
 C2348 C 0.14332 0.58579 1.01302
 C2349 C 0.16282 0.58234 0.99603
 C2350 C 0.14675 0.58588 0.97604
 C2351 C 0.12282 0.56366 0.99285
 C2352 C 0.14231 0.56020 0.97586
 C2353 C 0.13891 0.56014 1.01282
 C2354 C 0.15872 0.55683 0.99585
 C2355 C 0.18530 0.59237 0.99795
 C2356 C 0.20395 0.60019 0.99953
 C2357 C 0.10061 0.55293 0.99161
 C2358 C 0.08246 0.54385 0.99126
 H2359 H 0.11358 0.60238 0.99182
 H2360 H 0.14395 0.59641 1.02833
 H2361 H 0.15020 0.59659 0.96093
 H2362 H 0.14168 0.54958 0.96055
 H2363 H 0.13549 0.54944 1.02794
 H2364 H 0.17202 0.54361 0.99706
 C2365 C 0.14444 0.43644 0.47939
 C2366 C 0.16343 0.44139 0.49639
 C2367 C 0.16749 0.41596 0.49927
 C2368 C 0.14885 0.41083 0.48227
 C2369 C 0.12746 0.43540 0.49918
 C2370 C 0.13150 0.40996 0.50206
 C2371 C 0.14611 0.44052 0.51616
 C2372 C 0.15051 0.41492 0.51906
 C2373 C 0.18998 0.40558 0.49942
 C2374 C 0.20871 0.39755 0.49967
 C2375 C 0.10530 0.44649 0.49921
 C2376 C 0.08715 0.45578 0.49932
 H2377 H 0.14170 0.44542 0.46309
 H2378 H 0.17681 0.45420 0.49405
 H2379 H 0.15024 0.39849 0.46835
 H2380 H 0.11810 0.39717 0.50440
 H2381 H 0.14474 0.45285 0.53009
 H2382 H 0.15326 0.40594 0.53536
 C2383 C 0.64029 0.92915 0.02122
 C2384 C 0.64576 0.90557 0.01152
 C2385 C 0.66655 0.91545 -0.00060
 C2386 C 0.66142 0.93886 0.00910
 C2387 C 0.62637 0.93457 0.00007
 C2388 C 0.64716 0.94444 -0.01205
 C2389 C 0.63147 0.91116 -0.00964
 C2390 C 0.65263 0.92087 -0.02176
 C2391 C 0.68911 0.90524 -0.00087
 C2392 C 0.70789 0.89733 -0.00096
 C2393 C 0.60414 0.94552 0.00047
 C2394 C 0.58597 0.95475 0.00081
 H2395 H 0.63497 0.93269 0.03889
 H2396 H 0.64546 0.88947 0.02120
 H2397 H 0.67399 0.95013 0.01680
 H2398 H 0.64749 0.96054 -0.02173
 H2399 H 0.61888 0.89991 -0.01733
 H2400 H 0.65796 0.91734 -0.03942
 C2401 C -0.02017 0.85002 0.94803
 C2402 C -0.01950 0.84552 0.92229
 C2403 C -0.00007 0.82863 0.92600
 C2404 C -0.00071 0.83274 0.95158
 C2405 C -0.00262 0.86862 0.94442
 C2406 C 0.01683 0.85175 0.94816
 C2407 C -0.00198 0.86443 0.91885
 C2408 C 0.01746 0.84725 0.92241
 C2409 C 0.00102 0.80690 0.91470
 C2410 C 0.00135 0.78968 0.90418
 C2411 C -0.00383 0.89114 0.95407
 C2412 C -0.00440 0.90984 0.96166
 H2413 H -0.03567 0.85146 0.95866
 H2414 H -0.03442 0.84268 0.91153
 H2415 H -0.00014 0.81944 0.96488
 H2416 H 0.03174 0.85462 0.95892
 H2417 H -0.00255 0.87770 0.90551
 H2418 H 0.03296 0.84584 0.91178
 C2419 C 0.49792 0.36713 0.41866
 C2420 C 0.51823 0.35073 0.42076
 C2421 C 0.50172 0.33135 0.42516
 C2422 C 0.48142 0.34746 0.42289
 C2423 C 0.49868 0.37099 0.44426
 C2424 C 0.48215 0.35163 0.44867
 C2425 C 0.51899 0.35490 0.44655
 C2426 C 0.50248 0.33514 0.45077
 C2427 C 0.50300 0.30974 0.41363
 C2428 C 0.50338 0.29252 0.40311
 C2429 C 0.49718 0.39332 0.45433
 C2430 C 0.49640 0.41189 0.46222
 H2431 H 0.49599 0.38052 0.40557
 H2432 H 0.53310 0.35008 0.40919
 H2433 H 0.46599 0.34412 0.41303
 H2434 H 0.46729 0.35229 0.46024
 H2435 H 0.53442 0.35826 0.45641
 H2436 H 0.50441 0.32172 0.46382
 C2437 C -0.00535 0.34969 0.54433
 C2438 C 0.01558 0.33599 0.55223
 C2439 C 0.00291 0.33006 0.57424
 C2440 C -0.01801 0.34337 0.56653
 C2441 C 0.00408 0.37054 0.55601
 C2442 C -0.00858 0.36456 0.57802
 C2443 C 0.02500 0.35722 0.56372
 C2444 C 0.01233 0.35093 0.58588
 C2445 C 0.00234 0.30796 0.58530
 C2446 C 0.00206 0.29035 0.59550
 C2447 C 0.00459 0.39323 0.54626
 C2448 C 0.00480 0.41198 0.53839
 H2449 H -0.01261 0.34949 0.52711
 H2450 H 0.02547 0.32396 0.54175
 H2451 H -0.03569 0.33739 0.56779
 H2452 H -0.01847 0.37657 0.58853
 H2453 H 0.04268 0.36320 0.56247
 H2454 H 0.01959 0.35117 0.60310
 C2455 C 0.49267 0.84934 0.04627
 C2456 C 0.51345 0.83554 0.05440
 C2457 C 0.50046 0.82953 0.07620
 C2458 C 0.47968 0.84294 0.06827
 C2459 C 0.50199 0.87010 0.05819
 C2460 C 0.48901 0.86405 0.08000
 C2461 C 0.52276 0.85669 0.06613
 C2462 C 0.50976 0.85032 0.08808
 C2463 C 0.49978 0.80737 0.08713
 C2464 C 0.49951 0.78969 0.09724
 C2465 C 0.50274 0.89283 0.04851
 C2466 C 0.50316 0.91157 0.04063
 H2467 H 0.48566 0.84924 0.02894
 H2468 H 0.52345 0.82354 0.04399
 H2469 H 0.46198 0.83700 0.06924
 H2470 H 0.47900 0.87603 0.09043
 H2471 H 0.54047 0.86262 0.06517
 H2472 H 0.51678 0.85046 0.10541
 C2473 C 0.47771 0.64489 0.06073
 C2474 C 0.47672 0.64929 0.08651
 C2475 C 0.49701 0.66509 0.08389
 C2476 C 0.49801 0.66103 0.05828
 C2477 C 0.49425 0.62529 0.06502
 C2478 C 0.51453 0.64111 0.06242
 C2479 C 0.49324 0.62933 0.09063
 C2480 C 0.51355 0.64549 0.08818
 C2481 C 0.49862 0.68741 0.09408
 C2482 C 0.49987 0.70593 0.10209
 C2483 C 0.49315 0.60318 0.05431
 C2484 C 0.49281 0.58503 0.04539
 H2485 H 0.46296 0.64442 0.04933
 H2486 H 0.46119 0.65290 0.09654
 H2487 H 0.50001 0.67430 0.04507
 H2488 H 0.53007 0.63753 0.05239
 H2489 H 0.49125 0.61606 0.10383
 H2490 H 0.52830 0.64597 0.09957
 C2491 C -0.02415 0.14506 0.56194
 C2492 C -0.02181 0.14921 0.58764
 C2493 C -0.00271 0.16590 0.58250
 C2494 C -0.00503 0.16210 0.55697
 C2495 C -0.00636 0.12617 0.56367
 C2496 C 0.01272 0.14288 0.55855
 C2497 C -0.00405 0.12995 0.58921
 C2498 C 0.01507 0.14700 0.58423
 C2499 C -0.00057 0.18817 0.59266
 C2500 C 0.00111 0.20667 0.60062
 C2501 C -0.00792 0.10409 0.55299
 C2502 C -0.00857 0.08595 0.54407
 H2503 H -0.04029 0.14403 0.55267
 H2504 H -0.03598 0.15205 0.59974
 H2505 H -0.00539 0.17556 0.54382
 H2506 H 0.02690 0.14007 0.54646
 H2507 H -0.00368 0.11649 0.60235
 H2508 H 0.03122 0.14803 0.59349
 C2509 C 0.48757 0.14687 0.44194
 C2510 C 0.50770 0.16331 0.44080
 C2511 C 0.50272 0.16776 0.41570
 C2512 C 0.48258 0.15164 0.41669
 C2513 C 0.50357 0.12763 0.43491
 C2514 C 0.49859 0.13205 0.40980
 C2515 C 0.52371 0.14375 0.43392
 C2516 C 0.51873 0.14853 0.40865
 C2517 C 0.50220 0.19030 0.40544
 C2518 C 0.50180 0.20904 0.39748
 C2519 C 0.50385 0.10542 0.44590
 C2520 C 0.50385 0.08726 0.45516
 H2521 H 0.47477 0.14596 0.45576
 H2522 H 0.51143 0.17641 0.45344
 H2523 H 0.46567 0.15513 0.40948
 H2524 H 0.49486 0.11894 0.39718
 H2525 H 0.54062 0.14026 0.44113
 H2526 H 0.53153 0.14947 0.39483
 C2527 C 0.00134 0.62881 0.90703
 C2528 C -0.01743 0.64677 0.91079
 C2529 C 0.00085 0.66455 0.91429
 C2530 C 0.01962 0.64697 0.91037
 C2531 C 0.00143 0.62401 0.93261
 C2532 C 0.01970 0.64180 0.93610
 C2533 C -0.01733 0.64161 0.93652
 C2534 C 0.00094 0.65972 0.93986
 C2535 C 0.00044 0.68732 0.90456
 C2536 C 0.00010 0.70624 0.89703
 C2537 C 0.00153 0.60162 0.94323
 C2538 C 0.00133 0.58340 0.95236
 H2539 H 0.00152 0.61584 0.89366
 H2540 H -0.03270 0.64907 0.90028
 H2541 H 0.03481 0.64943 0.89950
 H2542 H 0.03497 0.63952 0.94662
 H2543 H -0.03252 0.63918 0.94739
 H2544 H 0.00076 0.67267 0.95326
 C2545 C 0.21847 0.69383 0.89808
 C2546 C 0.21715 0.66827 0.90366
 C2547 C 0.23670 0.67089 0.92028
 C2548 C 0.23805 0.69624 0.91509
 C2549 C 0.23586 0.68866 0.87931
 C2550 C 0.25538 0.69124 0.89596
 C2551 C 0.23452 0.66332 0.88452
 C2552 C 0.25404 0.66579 0.90144
 C2553 C 0.23856 0.66025 0.94269
 C2554 C 0.24165 0.65053 0.96041
 C2555 C 0.23630 0.69844 0.85642
 C2556 C 0.23739 0.70662 0.83768
 H2557 H 0.20381 0.70547 0.89642
 H2558 H 0.20142 0.65876 0.90709
 H2559 H 0.23948 0.70968 0.92788
 H2560 H 0.27114 0.70073 0.89257
 H2561 H 0.23310 0.64987 0.87174
 H2562 H 0.26873 0.65416 0.90303
 C2563 C 0.73432 0.16420 0.38185
 C2564 C 0.75319 0.16845 0.39913
 C2565 C 0.73511 0.17246 0.41754
 C2566 C 0.71622 0.16806 0.40057
 C2567 C 0.73376 0.18951 0.37626
 C2568 C 0.71563 0.19357 0.39460
 C2569 C 0.75263 0.19386 0.39327
 C2570 C 0.73456 0.19777 0.41197
 C2571 C 0.73744 0.16235 0.44018
 C2572 C 0.74112 0.15322 0.45811
 C2573 C 0.73413 0.19903 0.35322
 C2574 C 0.73539 0.20710 0.33443
 H2575 H 0.73426 0.15047 0.36927
 H2576 H 0.76870 0.15804 0.40118
 H2577 H 0.70122 0.15738 0.40383
 H2578 H 0.70014 0.20400 0.39248
 H2579 H 0.76765 0.20452 0.39006
 H2580 H 0.73465 0.21149 0.42456
 C2581 C 0.25196 0.33246 0.38587
 C2582 C 0.23262 0.32814 0.40315
 C2583 C 0.25021 0.32523 0.42185
 C2584 C 0.26953 0.32971 0.40486
 C2585 C 0.25362 0.30705 0.38162
 C2586 C 0.27121 0.30415 0.40032
 C2587 C 0.23428 0.30253 0.39856
 C2588 C 0.25188 0.29981 0.41766
 C2589 C 0.24946 0.33635 0.44379
 C2590 C 0.25044 0.34664 0.46115
 C2591 C 0.25553 0.29736 0.35905
 C2592 C 0.25664 0.28955 0.34037
 H2593 H 0.25208 0.34578 0.37257
 H2594 H 0.21672 0.33807 0.40459
 H2595 H 0.28402 0.34102 0.40770
 H2596 H 0.28712 0.29423 0.39888
 H2597 H 0.21981 0.29121 0.39566
 H2598 H 0.25176 0.28652 0.43099
 C2599 C 0.77082 0.82074 0.89158
 C2600 C 0.75230 0.83775 0.89890
 C2601 C 0.74925 0.82455 0.92120
 C2602 C 0.76777 0.80769 0.91417
 C2603 C 0.75254 0.80611 0.88109
 C2604 C 0.74948 0.79286 0.90334
 C2605 C 0.73401 0.82298 0.88811
 C2606 C 0.73093 0.80993 0.91076
 C2607 C 0.74854 0.83582 0.94305
 C2608 C 0.74956 0.84626 0.96033
 C2609 C 0.75439 0.79630 0.85857
 C2610 C 0.75546 0.78842 0.83992
 H2611 H 0.78722 0.82509 0.88346
 H2612 H 0.75339 0.85634 0.89732
 H2613 H 0.78161 0.80148 0.92517
 H2614 H 0.74841 0.77426 0.90487
 H2615 H 0.72019 0.82919 0.87710
 H2616 H 0.71454 0.80562 0.91890
 C2617 C 0.71600 0.81832 0.10796
 C2618 C 0.73467 0.83504 0.10064
 C2619 C 0.73714 0.82268 0.07805
 C2620 C 0.71848 0.80610 0.08497
 C2621 C 0.73426 0.80267 0.11784
 C2622 C 0.73673 0.79024 0.09528
 C2623 C 0.75286 0.81927 0.11079
 C2624 C 0.75536 0.80703 0.08797
 C2625 C 0.74018 0.83478 0.05657
 C2626 C 0.74411 0.84569 0.03975
 C2627 C 0.73404 0.79242 0.14044
 C2628 C 0.73516 0.78484 0.15936
 H2629 H 0.69980 0.82283 0.11645
 H2630 H 0.73385 0.85359 0.10263
 H2631 H 0.70438 0.80083 0.07406
 H2632 H 0.73756 0.77169 0.09336
 H2633 H 0.76700 0.82461 0.12162
 H2634 H 0.77158 0.80250 0.07953
 C2635 C 0.21697 0.31646 0.60819
 C2636 C 0.23512 0.33389 0.60124
 C2637 C 0.23822 0.32188 0.57852
 C2638 C 0.22008 0.30460 0.58507
 C2639 C 0.23566 0.30132 0.61805
 C2640 C 0.23876 0.28924 0.59537
 C2641 C 0.25374 0.31862 0.61138
 C2642 C 0.25687 0.30673 0.58844
 C2643 C 0.24109 0.33429 0.55719
 C2644 C 0.24491 0.34546 0.54051
 C2645 C 0.23558 0.29079 0.64054
 C2646 C 0.23678 0.28304 0.65939
 H2647 H 0.20056 0.32033 0.61657
 H2648 H 0.23365 0.35238 0.60344
 H2649 H 0.20628 0.29898 0.57397
 H2650 H 0.24025 0.27074 0.59323
 H2651 H 0.26758 0.32430 0.62240
 H2652 H 0.27330 0.30285 0.58010
 C2653 C 0.74360 0.16876 0.61084
 C2654 C 0.72392 0.17277 0.59421
 C2655 C 0.74118 0.17635 0.57495
 C2656 C 0.76083 0.17219 0.59132
 C2657 C 0.74423 0.19415 0.61544
 C2658 C 0.76148 0.19770 0.59617
 C2659 C 0.72453 0.19837 0.59914
 C2660 C 0.74182 0.20176 0.57949
 C2661 C 0.74105 0.16538 0.55278
 C2662 C 0.74302 0.15519 0.53530
 C2663 C 0.74643 0.20352 0.63822
 C2664 C 0.74831 0.21084 0.65708
 H2665 H 0.74442 0.15524 0.62391
 H2666 H 0.70843 0.16247 0.59318
 H2667 H 0.77579 0.16131 0.58793
 H2668 H 0.77698 0.20799 0.59719
 H2669 H 0.70961 0.20927 0.60261
 H2670 H 0.74101 0.21524 0.56639
 C2671 C 0.22550 0.69643 0.10360
 C2672 C 0.24239 0.69959 0.08359
 C2673 C 0.24214 0.67405 0.07977
 C2674 C 0.22526 0.67070 0.09941
 C2675 C 0.24553 0.69301 0.11966
 C2676 C 0.24528 0.66749 0.11579
 C2677 C 0.26240 0.69635 0.10003
 C2678 C 0.26213 0.67068 0.09589
 C2679 C 0.24161 0.66242 0.05799
 C2680 C 0.24303 0.65167 0.04082
 C2681 C 0.24769 0.70300 0.14215
 C2682 C 0.24929 0.71082 0.16082
 H2683 H 0.21044 0.70716 0.10703
 H2684 H 0.24113 0.71269 0.07013
 H2685 H 0.20995 0.66009 0.09893
 H2686 H 0.24655 0.65435 0.12921
 H2687 H 0.27773 0.70694 0.10050
 H2688 H 0.27722 0.65997 0.09253
 C2689 C 0.18534 0.60963 0.72387
 C2690 C 0.19800 0.58679 0.72658
 C2691 C 0.17883 0.57845 0.74213
 C2692 C 0.16603 0.60091 0.73939
 C2693 C 0.19744 0.61840 0.74484
 C2694 C 0.17827 0.60997 0.76034
 C2695 C 0.21030 0.59598 0.74758
 C2696 C 0.19094 0.58726 0.76308
 C2697 C 0.16730 0.55670 0.74204
 C2698 C 0.15656 0.53962 0.74385
 C2699 C 0.20707 0.64095 0.74683
 C2700 C 0.21444 0.65972 0.74852
 H2701 H 0.18311 0.61910 0.70776
 H2702 H 0.20598 0.57702 0.71269
 H2703 H 0.14772 0.60275 0.73597
 H2704 H 0.17024 0.61968 0.77425
 H2705 H 0.22862 0.59420 0.75103
 H2706 H 0.19317 0.57783 0.77921
 C2707 C 0.69923 0.10056 0.26204
 C2708 C 0.67360 0.09581 0.26203
 C2709 C 0.67722 0.07970 0.24209
 C2710 C 0.70273 0.08412 0.24209
 C2711 C 0.69530 0.11988 0.24504
 C2712 C 0.69898 0.10384 0.22506
 C2713 C 0.66980 0.11539 0.24506
 C2714 C 0.67327 0.09901 0.22509
 C2715 C 0.66605 0.05776 0.24201
 C2716 C 0.65563 0.04050 0.24403
 C2717 C 0.70481 0.14249 0.24702
 C2718 C 0.71229 0.16123 0.24847
 H2719 H 0.70993 0.10143 0.27728
 H2720 H 0.66304 0.09230 0.27726
 H2721 H 0.71616 0.07104 0.24078
 H2722 H 0.70955 0.10742 0.20986
 H2723 H 0.65634 0.12844 0.24637
 H2724 H 0.66255 0.09814 0.20986
 C2725 C 0.79780 0.09765 0.75704
 C2726 C 0.79412 0.07788 0.74063
 C2727 C 0.81980 0.07415 0.73940
 C2728 C 0.82359 0.09361 0.75582
 C2729 C 0.79978 0.11379 0.73666
 C2730 C 0.82545 0.10999 0.73545
 C2731 C 0.79591 0.09440 0.72018
 C2732 C 0.82182 0.09026 0.71901
 C2733 C 0.83193 0.05273 0.74228
 C2734 C 0.84287 0.03593 0.74604
 C2735 C 0.78957 0.13635 0.73623
 C2736 C 0.78211 0.15528 0.73687
 H2737 H 0.78783 0.10092 0.77268
 H2738 H 0.78136 0.06442 0.74277
 H2739 H 0.83509 0.09310 0.77052
 H2740 H 0.83826 0.12340 0.73333
 H2741 H 0.78439 0.09501 0.70550
 H2742 H 0.83181 0.08697 0.70339
 C2743 C 0.29732 0.59800 0.21966
 C2744 C 0.32326 0.59399 0.21957
 C2745 C 0.32041 0.57738 0.23946
 C2746 C 0.29470 0.58098 0.23961
 C2747 C 0.30033 0.61699 0.23679
 C2748 C 0.29752 0.60036 0.25666
 C2749 C 0.32604 0.61332 0.23665
 C2750 C 0.32335 0.59645 0.25652
 C2751 C 0.33258 0.55599 0.24237
 C2752 C 0.34357 0.53924 0.24620
 C2753 C 0.29002 0.63950 0.23656
 C2754 C 0.28237 0.65833 0.23756
 H2755 H 0.28648 0.59892 0.20448
 H2756 H 0.33397 0.59111 0.20434
 H2757 H 0.28195 0.56743 0.24083
 H2758 H 0.28685 0.60320 0.27192
 H2759 H 0.33884 0.62683 0.23545
 H2760 H 0.33416 0.59563 0.27173
 C2761 C 0.33359 0.38435 0.25381
 C2762 C 0.33038 0.40081 0.23361
 C2763 C 0.32538 0.41987 0.25032
 C2764 C 0.32874 0.40371 0.27050
 C2765 C 0.30823 0.37927 0.25353
 C2766 C 0.30324 0.39833 0.27024
 C2767 C 0.30483 0.39538 0.23331
 C2768 C 0.30001 0.41484 0.25004
 C2769 C 0.33589 0.44208 0.24974
 C2770 C 0.34570 0.45968 0.25092
 C2771 C 0.29899 0.35655 0.25540
 C2772 C 0.29142 0.33782 0.25657
 H2773 H 0.34730 0.37160 0.25545
 H2774 H 0.34160 0.40210 0.21850
 H2775 H 0.33869 0.40738 0.28581
 H2776 H 0.29204 0.39704 0.28536
 H2777 H 0.29487 0.39165 0.21803
 H2778 H 0.28633 0.42761 0.24841
 C2779 C 0.80256 0.89462 0.73328
 C2780 C 0.79907 0.91372 0.75071
 C2781 C 0.82449 0.91850 0.74943
 C2782 C 0.82817 0.89979 0.73201
 C2783 C 0.80709 0.87802 0.75286
 C2784 C 0.83250 0.88284 0.75159
 C2785 C 0.80343 0.89672 0.77027
 C2786 C 0.82898 0.90184 0.76898
 C2787 C 0.83514 0.94064 0.74873
 C2788 C 0.84506 0.95819 0.74983
 C2789 C 0.79775 0.85534 0.75485
 C2790 C 0.79013 0.83663 0.75608
 H2791 H 0.79156 0.89135 0.71862
 H2792 H 0.78545 0.92666 0.75027
 H2793 H 0.83839 0.90132 0.71624
 H2794 H 0.84615 0.86993 0.75204
 H2795 H 0.79322 0.89520 0.78606
 H2796 H 0.83997 0.90506 0.78366
 C2797 C 0.66334 0.88616 0.23422
 C2798 C 0.66747 0.90295 0.25352
 C2799 C 0.67193 0.92157 0.23582
 C2800 C 0.66765 0.90510 0.21650
 C2801 C 0.68868 0.88043 0.23388
 C2802 C 0.69320 0.89899 0.21613
 C2803 C 0.69291 0.89696 0.25317
 C2804 C 0.69727 0.91586 0.23549
 C2805 C 0.66198 0.94409 0.23842
 C2806 C 0.65294 0.96194 0.24217
 C2807 C 0.69804 0.85750 0.23400
 C2808 C 0.70604 0.83880 0.23516
 H2809 H 0.64948 0.87373 0.23371
 H2810 H 0.65681 0.90479 0.26895
 H2811 H 0.65720 0.90872 0.20141
 H2812 H 0.70388 0.89707 0.20072
 H2813 H 0.70334 0.89339 0.26828
 H2814 H 0.71112 0.92831 0.23601
 C2815 C 0.19431 0.39499 0.75297
 C2816 C 0.19832 0.41388 0.73517
 C2817 C 0.17293 0.41931 0.73571
 C2818 C 0.16882 0.40072 0.75352
 C2819 C 0.19009 0.37835 0.73379
 C2820 C 0.16470 0.38381 0.73433
 C2821 C 0.19426 0.39687 0.71592
 C2822 C 0.16866 0.40271 0.71650
 C2823 C 0.16272 0.44172 0.73825
 C2824 C 0.15344 0.45948 0.74187
 C2825 C 0.19962 0.35548 0.73390
 C2826 C 0.20768 0.33681 0.73507
 H2827 H 0.20492 0.39159 0.76800
 H2828 H 0.21205 0.42647 0.73552
 H2829 H 0.15828 0.40252 0.76904
 H2830 H 0.15096 0.37123 0.73401
 H2831 H 0.20482 0.39499 0.70043
 H2832 H 0.15803 0.40616 0.70150
 C2833 C 0.09410 0.74029 0.78858
 C2834 C 0.08384 0.72129 0.80362
 C2835 C 0.07698 0.73900 0.82122
 C2836 C 0.08685 0.75796 0.80639
 C2837 C 0.11666 0.73723 0.80086
 C2838 C 0.10969 0.75488 0.81847
 C2839 C 0.10683 0.71824 0.81568
 C2840 C 0.09959 0.73594 0.83342
 C2841 C 0.05556 0.74128 0.83362
 C2842 C 0.03881 0.74454 0.84489
 C2843 C 0.13924 0.73733 0.79051
 C2844 C 0.15817 0.73835 0.78294
 H2845 H 0.09211 0.74208 0.77001
 H2846 H 0.07294 0.70751 0.79766
 H2847 H 0.07842 0.77432 0.80268
 H2848 H 0.12052 0.76870 0.82449
 H2849 H 0.11531 0.70190 0.81939
 H2850 H 0.10164 0.73417 0.85199
 C2851 C 0.61425 0.23660 0.32508
 C2852 C 0.59736 0.25641 0.32281
 C2853 C 0.57811 0.23947 0.32030
 C2854 C 0.59474 0.21963 0.32273
 C2855 C 0.61740 0.23675 0.29926
 C2856 C 0.59822 0.21974 0.29666
 C2857 C 0.60073 0.25657 0.29687
 C2858 C 0.58117 0.23964 0.29447
 C2859 C 0.55691 0.24234 0.33298
 C2860 C 0.54033 0.24605 0.34437
 C2861 C 0.63978 0.23648 0.28846
 C2862 C 0.65857 0.23746 0.28051
 H2863 H 0.62807 0.23535 0.33757
 H2864 H 0.59682 0.27154 0.33368
 H2865 H 0.59203 0.20446 0.33349
 H2866 H 0.59886 0.20464 0.28577
 H2867 H 0.60342 0.27177 0.28613
 H2868 H 0.56732 0.24090 0.28202
 C2869 C 0.59870 0.76534 0.19861
 C2870 C 0.59457 0.76404 0.17288
 C2871 C 0.57817 0.74447 0.17714
 C2872 C 0.58197 0.74575 0.20275
 C2873 C 0.61802 0.74813 0.19599
 C2874 C 0.60169 0.72852 0.20031
 C2875 C 0.61415 0.74685 0.17040
 C2876 C 0.59749 0.72726 0.17451
 C2877 C 0.55645 0.74380 0.16551
 C2878 C 0.53934 0.74512 0.15470
 C2879 C 0.64051 0.75041 0.20582
 C2880 C 0.65922 0.75207 0.21342
 H2881 H 0.59943 0.78105 0.20856
 H2882 H 0.59144 0.77866 0.16146
 H2883 H 0.56851 0.74521 0.21594
 H2884 H 0.60489 0.71393 0.21174
 H2885 H 0.62758 0.74740 0.15717
 H2886 H 0.59676 0.71156 0.16454
 C2887 C 0.10062 0.26461 0.69770
 C2888 C 0.09671 0.26357 0.67192
 C2889 C 0.08002 0.24419 0.67588
 C2890 C 0.08361 0.24522 0.70154
 C2891 C 0.11974 0.24717 0.69513
 C2892 C 0.10312 0.22776 0.69915
 C2893 C 0.11609 0.24615 0.66949
 C2894 C 0.09914 0.22675 0.67329
 C2895 C 0.05840 0.24388 0.66406
 C2896 C 0.04140 0.24543 0.65312
 C2897 C 0.14216 0.24910 0.70517
 C2898 C 0.16083 0.25051 0.71293
 H2899 H 0.10147 0.28023 0.70779
 H2900 H 0.09387 0.27831 0.66059
 H2901 H 0.07002 0.24476 0.71459
 H2902 H 0.10603 0.21304 0.71049
 H2903 H 0.12965 0.24662 0.65639
 H2904 H 0.09830 0.21114 0.66319
 C2905 C 0.90112 0.23652 0.70104
 C2906 C 0.91292 0.21801 0.68673
 C2907 C 0.92089 0.23627 0.66996
 C2908 C 0.90944 0.25476 0.68411
 C2909 C 0.87970 0.23386 0.68689
 C2910 C 0.88775 0.25208 0.67012
 C2911 C 0.89108 0.21533 0.67275
 C2912 C 0.89945 0.23361 0.65584
 C2913 C 0.94339 0.23901 0.65982
 C2914 C 0.96118 0.24279 0.65055
 C2915 C 0.85669 0.23363 0.69625
 C2916 C 0.83786 0.23438 0.70415
 H2917 H 0.90154 0.23773 0.71974
 H2918 H 0.92354 0.20404 0.69345
 H2919 H 0.91722 0.27099 0.68872
 H2920 H 0.87719 0.26607 0.66336
 H2921 H 0.88325 0.19912 0.66816
 H2922 H 0.89901 0.23241 0.63713
 C2923 C 0.38331 0.73505 0.16388
 C2924 C 0.40084 0.75324 0.16952
 C2925 C 0.41900 0.73475 0.17188
 C2926 C 0.40178 0.71654 0.16608
 C2927 C 0.37797 0.73242 0.18923
 C2928 C 0.39606 0.71387 0.19165
 C2929 C 0.39523 0.75060 0.19498
 C2930 C 0.41369 0.73213 0.19724
 C2931 C 0.44141 0.73756 0.16155
 C2932 C 0.45913 0.74147 0.15215
 C2933 C 0.35506 0.73239 0.19886
 C2934 C 0.33634 0.73351 0.20700
 H2935 H 0.37061 0.73627 0.15025
 H2936 H 0.40301 0.76948 0.16035
 H2937 H 0.40475 0.70253 0.15411
 H2938 H 0.39379 0.69765 0.20084
 H2939 H 0.39230 0.76464 0.20693
 H2940 H 0.42641 0.73093 0.21085
 C2941 C 0.38527 0.25156 0.33489
 C2942 C 0.40233 0.23211 0.33068
 C2943 C 0.42106 0.24950 0.32694
 C2944 C 0.40430 0.26893 0.33130
 C2945 C 0.38053 0.25266 0.30943
 C2946 C 0.39926 0.27005 0.30570
 C2947 C 0.39724 0.23321 0.30503
 C2948 C 0.41637 0.25061 0.30147
 C2949 C 0.44323 0.24891 0.33763
 C2950 C 0.46081 0.25006 0.34756
 C2951 C 0.35782 0.25445 0.30001
 C2952 C 0.33910 0.25547 0.29232
 H2953 H 0.37226 0.25204 0.34854
 H2954 H 0.40385 0.21648 0.34100
 H2955 H 0.40746 0.28363 0.34224
 H2956 H 0.39774 0.28570 0.29539
 H2957 H 0.39403 0.21853 0.29409
 H2958 H 0.42940 0.25014 0.28785
 C2959 C 0.90114 0.75873 0.79710
 C2960 C 0.90851 0.77008 0.81926
 C2961 C 0.91970 0.74781 0.82674
 C2962 C 0.91269 0.73643 0.80475
 C2963 C 0.87926 0.75126 0.80907
 C2964 C 0.89041 0.72897 0.81653
 C2965 C 0.88633 0.76262 0.83104
 C2966 C 0.89780 0.74035 0.83867
 C2967 C 0.94179 0.74703 0.83756
 C2968 C 0.95929 0.74803 0.84765
 C2969 C 0.85660 0.75318 0.79959
 C2970 C 0.83788 0.75427 0.79189
 H2971 H 0.90223 0.76637 0.77993
 H2972 H 0.91623 0.78698 0.82046
 H2973 H 0.92377 0.72563 0.79409
 H2974 H 0.88266 0.71209 0.81532
 H2975 H 0.87529 0.77343 0.84173
 H2976 H 0.89667 0.73272 0.85585
   
