data_POSCAR
  _audit_creation_date              2014-09-24
  _audit_creation_method            'ToBaCCo'
  _symmetry_space_group_name_H-M    'P1'
  _symmetry_Int_Tables_number       1
  _symmetry_cell_setting            triclinic
  loop_
  _symmetry_equiv_pos_as_xyz
 x,y,z
_cell_length_a 58.4775
_cell_length_b 58.0068
_cell_length_c 60.2508
_cell_angle_alpha 90.412300
_cell_angle_beta 90.357000
_cell_angle_gamma 90.332800
loop_
  _atom_site_label
  _atom_site_type_symbol
  _atom_site_fract_x
  _atom_site_fract_y
  _atom_site_fract_z
N1 N 0.32383 0.42410 0.92993
 N2 N 0.43527 0.81644 0.43303
 N3 N 0.93500 0.94252 0.82027
 N4 N 0.42880 -0.06185 0.31097
 N5 N 0.82399 0.32488 0.32076
 N6 N -0.18162 0.81389 0.81896
 N7 N 0.94468 0.30599 0.43489
 N8 N 0.42729 0.41247 0.82864
 N9 N 0.80373 0.94522 0.93219
 N10 N 0.31156 0.81522 0.32137
 N11 N 0.81003 0.44073 0.43542
 N12 N 0.93407 0.82137 -0.06872
 N13 N 0.31619 0.31576 0.81511
 N14 N 0.18577 0.56248 0.56938
 N15 N 0.57029 0.67764 0.07290
 N16 N 0.67921 0.17863 0.66911
 N17 N 1.05488 0.06885 0.18835
 N18 N 0.06983 0.18868 1.06592
 N19 N 0.18828 0.68617 0.68340
 N20 N 1.18882 0.18927 0.17763
 N21 N 0.69033 1.06285 0.55934
 N22 N 0.55395 0.55616 0.18946
 N23 N 0.68394 0.69579 0.18405
 N24 N 0.18624 0.05347 1.06936
 N25 N 0.56126 0.19715 0.55424
 N26 N 0.07438 0.56986 0.68626
 N27 N 0.69362 0.56698 0.06752
 N28 N 0.06009 0.69078 0.56585
 N29 N 0.56262 1.04619 0.68324
 N30 N 0.44074 0.30854 0.92435
 N31 N 0.92897 0.43930 0.32863
 N32 N 0.31235 0.93760 0.43616
 O33 O 0.20160 0.53590 0.75356
 O34 O 0.21139 0.53324 0.79198
 O35 O 0.26292 0.56967 0.72840
 O36 O 0.30003 0.56199 0.72545
 O37 O 0.23195 0.51193 0.69321
 O38 O 0.23359 0.47065 0.69920
 O39 O 0.32280 0.50359 0.77957
 O40 O 0.31635 0.54364 0.77865
 O41 O 0.26589 0.47322 0.80807
 O42 O 0.22314 0.47791 0.80133
 O43 O 0.28937 0.44563 0.74882
 O44 O 0.28927 0.45647 0.71046
 O45 O 0.32002 0.47443 0.75422
 O46 O 0.31324 0.48259 0.71203
 O47 O 0.26390 0.44531 0.77721
 O48 O 0.22224 0.45383 0.77646
 O49 O 0.29463 0.49979 0.80823
 O50 O 0.28931 0.54335 0.80459
 O51 O 0.20092 0.51057 0.72451
 O52 O 0.20848 0.46974 0.72426
 O53 O 0.25917 0.54010 0.69509
 O54 O 0.30089 0.53323 0.70217
 O55 O 0.23385 0.56810 0.75338
 O56 O 0.23744 0.55840 0.79239
 Zr57 Zr 0.23538 0.53435 0.76592
 O58 O 0.25553 0.51278 0.78605
 Zr59 Zr 0.27485 0.53570 0.72633
 O60 O 0.29687 0.51440 0.74476
 Zr61 Zr 0.23375 0.49596 0.72463
 O62 O 0.25383 0.47268 0.74286
 Zr63 Zr 0.29018 0.51833 0.77873
 O64 O 0.27024 0.54191 0.76051
 Zr65 Zr 0.24927 0.47826 0.77715
 O66 O 0.22698 0.49972 0.75883
 Zr67 Zr 0.28867 0.47979 0.73758
 O68 O 0.26842 0.50119 0.71706
 O69 O 0.24023 0.53032 0.73202
 O70 O 0.28380 0.48381 0.77146
 C71 C 0.19150 0.52570 0.73713
 C72 C 0.24612 0.57867 0.73895
 C73 C 0.24282 0.52927 0.68508
 C74 C 0.33040 0.48536 0.77001
 C75 C 0.28394 0.48257 0.81666
 C76 C 0.27916 0.43578 0.76503
 H77 H 0.25223 0.51563 0.80189
 H78 H 0.24972 0.45677 0.73831
 H79 H 0.23032 0.54081 0.72343
 H80 H 0.31302 0.51806 0.74146
 H81 H 0.30957 0.55777 0.77231
 H82 H 0.31282 0.55705 0.73507
 H83 H 0.22364 0.44469 0.76263
 H84 H 0.20145 0.46986 0.73916
 H85 H 0.27915 0.53769 0.81646
 H86 H 0.25280 0.56559 0.79161
 H87 H 0.27416 0.44875 0.70981
 H88 H 0.24816 0.47244 0.69109
 H89 H 0.20448 0.51762 0.79151
 H90 H 0.22726 0.48926 0.81304
 H91 H 0.29695 0.51996 0.69243
 H92 H 0.32641 0.49160 0.71787
 O93 O 0.23232 0.06089 0.22876
 O94 O 0.27232 0.05379 0.23043
 O95 O 0.20490 -0.00214 0.20247
 O96 O 0.20611 -0.03951 0.21057
 O97 O 0.17397 0.02878 0.25994
 O98 O 0.18380 0.03215 0.29773
 O99 O 0.26655 -0.05764 0.26639
 O100 O 0.26153 -0.05372 0.22698
 O101 O 0.29540 0.00310 0.28943
 O102 O 0.28788 0.04323 0.28611
 O103 O 0.23737 -0.02376 0.32061
 O104 O 0.19701 -0.02450 0.31298
 O105 O 0.23833 -0.05706 0.29220
 O106 O 0.19605 -0.04889 0.28934
 O107 O 0.26514 0.00378 0.31878
 O108 O 0.26115 0.04634 0.30750
 O109 O 0.29617 -0.02634 0.26436
 O110 O 0.29026 -0.02537 0.22677
 O111 O 0.20448 0.06178 0.25501
 O112 O 0.20987 0.05702 0.29535
 O113 O 0.17405 0.00021 0.23387
 O114 O 0.18409 -0.04107 0.23959
 O115 O 0.23191 0.02612 0.19993
 O116 O 0.27385 0.02640 0.20874
 Zr117 Zr 0.24690 0.02781 0.23199
 O118 O 0.26940 0.00957 0.25290
 Zr119 Zr 0.20744 -0.01345 0.23527
 O120 O 0.22862 -0.03381 0.25552
 Zr121 Zr 0.20771 0.03002 0.27164
 O122 O 0.22802 0.01121 0.29391
 Zr123 Zr 0.26323 -0.02596 0.24993
 O124 O 0.24218 -0.00797 0.22699
 Zr125 Zr 0.26254 0.01706 0.28638
 O126 O 0.24221 0.03786 0.26536
 Zr127 Zr 0.22303 -0.02440 0.28872
 O128 O 0.20024 -0.00547 0.26860
 O129 O 0.21256 0.02184 0.23843
 O130 O 0.25772 -0.01843 0.28329
 C131 C 0.21560 0.07077 0.23880
 C132 C 0.21563 0.01357 0.19178
 C133 C 0.16418 0.01639 0.24491
 C134 C 0.25518 -0.06679 0.28229
 C135 C 0.30535 -0.01389 0.27981
 C136 C 0.25389 -0.01196 0.32903
 H137 H 0.28538 0.01330 0.24892
 H138 H 0.22431 0.01593 0.30925
 H139 H 0.20228 0.03056 0.22851
 H140 H 0.22542 -0.05033 0.25268
 H141 H 0.25556 -0.04738 0.21289
 H142 H 0.21707 -0.05155 0.21504
 H143 H 0.24953 0.04332 0.31900
 H144 H 0.22390 0.06594 0.29198
 H145 H 0.28402 -0.01867 0.21300
 H146 H 0.27046 0.01354 0.19832
 H147 H 0.19745 -0.00937 0.32065
 H148 H 0.17710 0.01654 0.29927
 H149 H 0.27206 0.06201 0.24488
 H150 H 0.29485 0.04310 0.27121
 H151 H 0.17476 -0.03729 0.25276
 H152 H 0.19909 -0.06069 0.27781
 O153 O 0.50009 0.68472 0.22514
 O154 O 0.45771 0.69093 0.22709
 O155 O 0.52364 0.74428 0.19135
 O156 O 0.51984 0.78307 0.19540
 O157 O 0.55571 0.72354 0.25233
 O158 O 0.54509 0.72774 0.29085
 O159 O 0.45744 0.80446 0.24808
 O160 O 0.46557 0.79762 0.20949
 O161 O 0.43260 0.74929 0.27662
 O162 O 0.44220 0.70546 0.27345
 O163 O 0.48566 0.77973 0.30572
 O164 O 0.52885 0.78041 0.29869
 O165 O 0.48489 0.80907 0.27468
 O166 O 0.52577 0.80539 0.27547
 O167 O 0.46213 0.74839 0.30664
 O168 O 0.46431 0.70817 0.29975
 O169 O 0.43056 0.77236 0.24634
 O170 O 0.43934 0.76668 0.20872
 O171 O 0.52681 0.68923 0.25248
 O172 O 0.52215 0.69952 0.29087
 O173 O 0.55436 0.74804 0.22305
 O174 O 0.54344 0.78864 0.22436
 O175 O 0.49689 0.71558 0.19163
 O176 O 0.46004 0.71042 0.19730
 Zr177 Zr 0.48318 0.71677 0.22376
 O178 O 0.45890 0.73679 0.24082
 Zr179 Zr 0.52044 0.76033 0.22271
 O180 O 0.49793 0.78212 0.24033
 Zr181 Zr 0.52190 0.72293 0.26412
 O182 O 0.49918 0.74252 0.28332
 Zr183 Zr 0.46402 0.77186 0.23413
 O184 O 0.48627 0.75170 0.21446
 Zr185 Zr 0.46518 0.73382 0.27500
 O186 O 0.48807 0.71184 0.25802
 Zr187 Zr 0.50235 0.77745 0.27472
 O188 O 0.52703 0.75801 0.25707
 O189 O 0.51707 0.72561 0.23006
 O190 O 0.46845 0.76875 0.26826
 C191 C 0.51675 0.67738 0.23719
 C192 C 0.51279 0.72729 0.18220
 C193 C 0.56494 0.73389 0.23583
 C194 C 0.46725 0.81595 0.26382
 C195 C 0.42210 0.76366 0.26402
 C196 C 0.47100 0.76659 0.31537
 H197 H 0.44321 0.73189 0.23669
 H198 H 0.50261 0.73981 0.29917
 H199 H 0.52774 0.71604 0.22131
 H200 H 0.50031 0.79838 0.23609
 H201 H 0.47315 0.79059 0.19648
 H202 H 0.51111 0.79688 0.19989
 H203 H 0.47912 0.70893 0.30774
 H204 H 0.50820 0.68988 0.28927
 H205 H 0.44750 0.76002 0.19586
 H206 H 0.44730 0.72138 0.19913
 H207 H 0.52615 0.76856 0.31012
 H208 H 0.55202 0.74322 0.28901
 H209 H 0.46105 0.68263 0.24102
 H210 H 0.42934 0.70956 0.26352
 H211 H 0.55119 0.78797 0.23899
 H212 H 0.52623 0.81194 0.26037
 O213 O 0.06700 0.72804 0.75191
 O214 O 0.05626 0.72642 0.79005
 O215 O 0.00668 0.69761 0.72065
 O216 O -0.03024 0.70566 0.71718
 O217 O 0.03843 0.75965 0.69427
 O218 O 0.03660 0.79967 0.70531
 O219 O -0.05416 0.75904 0.77817
 O220 O -0.04886 0.71867 0.77053
 O221 O 0.00083 0.78386 0.81110
 O222 O 0.04405 0.77986 0.80577
 O223 O -0.02249 0.81761 0.75749
 O224 O -0.01787 0.81305 0.71636
 O225 O -0.05319 0.78709 0.75199
 O226 O -0.04235 0.78879 0.71260
 O227 O 0.00551 0.81618 0.78377
 O228 O 0.04568 0.80685 0.78486
 O229 O -0.02534 0.75481 0.80848
 O230 O -0.02380 0.71472 0.79789
 O231 O 0.06844 0.75642 0.72604
 O232 O 0.06119 0.79718 0.73128
 O233 O 0.01080 0.73205 0.69092
 O234 O -0.03053 0.73674 0.69735
 O235 O 0.03480 0.69621 0.74694
 O236 O 0.03038 0.70145 0.78649
 Zr237 Zr 0.03300 0.72837 0.76315
 O238 O 0.01226 0.74743 0.78490
 Zr239 Zr -0.00526 0.73176 0.72217
 O240 O -0.02777 0.75088 0.74223
 Zr241 Zr 0.03576 0.77141 0.72725
 O242 O 0.01508 0.79246 0.74737
 Zr243 Zr -0.02220 0.74294 0.77574
 O244 O -0.00167 0.72159 0.75557
 Zr245 Zr 0.01865 0.78275 0.78074
 O246 O 0.04158 0.76357 0.76088
 Zr247 Zr -0.01958 0.78616 0.73989
 O248 O 0.00129 0.76716 0.71775
 O249 O 0.02913 0.73634 0.72981
 O250 O -0.01591 0.77822 0.77334
 C251 C 0.07743 0.73981 0.73702
 C252 C 0.02277 0.68720 0.73116
 C253 C 0.02751 0.74401 0.68321
 C254 C -0.06321 0.77570 0.76736
 C255 C -0.01551 0.77147 0.81895
 C256 C -0.01102 0.82635 0.77382
 H257 H 0.01523 0.74258 0.80032
 H258 H 0.01935 0.80879 0.74515
 H259 H 0.03912 0.72685 0.72025
 H260 H -0.04377 0.74758 0.73778
 H261 H -0.04201 0.70523 0.76291
 H262 H -0.04373 0.70986 0.72612
 H263 H 0.04648 0.81606 0.77114
 H264 H 0.06858 0.79443 0.74585
 H265 H -0.00965 0.71477 0.80696
 H266 H 0.01549 0.69372 0.78369
 H267 H -0.00464 0.82300 0.72026
 H268 H 0.02162 0.79980 0.69758
 H269 H 0.06324 0.74193 0.79167
 H270 H 0.03929 0.76755 0.81607
 H271 H -0.02683 0.75142 0.68986
 H272 H -0.05208 0.77478 0.71238
 O273 O -0.01048 0.07138 0.02496
 O274 O -0.04998 0.06212 0.02145
 O275 O 0.01418 0.01684 0.06614
 O276 O 0.01643 -0.02136 0.06533
 O277 O 0.05134 0.03639 0.00713
 O278 O 0.04585 0.02881 -0.03131
 O279 O -0.03978 -0.05377 0.01003
 O280 O -0.03923 -0.04135 0.04716
 O281 O -0.06678 -0.00059 -0.02763
 O282 O -0.05917 0.03998 -0.03162
 O283 O -0.00694 -0.03310 -0.04711
 O284 O 0.03366 -0.02951 -0.03659
 O285 O -0.01037 -0.05796 -0.01410
 O286 O 0.03191 -0.04897 -0.00866
 O287 O -0.03300 -0.00504 -0.05407
 O288 O -0.03121 0.03860 -0.05094
 O289 O -0.06837 -0.02505 0.00170
 O290 O -0.06470 -0.01334 0.04256
 O291 O 0.01984 0.06749 0.00176
 O292 O 0.01970 0.05312 -0.03688
 O293 O 0.04977 0.01282 0.03713
 O294 O 0.03997 -0.02894 0.03918
 O295 O -0.01197 0.04500 0.05952
 O296 O -0.05206 0.03955 0.04894
 Zr297 Zr -0.02386 0.03781 0.02721
 O298 O -0.04432 0.01463 0.00871
 Zr299 Zr 0.01637 -0.00160 0.03599
 O300 O -0.00289 -0.02688 0.01865
 Zr301 Zr 0.01915 0.03249 -0.00810
 O302 O 0.00097 0.00834 -0.02774
 Zr303 Zr -0.03788 -0.01901 0.01962
 O304 O -0.01899 0.00436 0.03980
 Zr305 Zr -0.03418 0.01475 -0.02467
 O306 O -0.01587 0.04043 -0.00672
 Zr307 Zr 0.00543 -0.02516 -0.01517
 O308 O 0.02636 -0.00128 0.00252
 O309 O 0.01114 0.03188 0.02536
 O310 O -0.02950 -0.01892 -0.01389
 C311 C 0.00708 0.07939 0.01484
 C312 C 0.00270 0.03476 0.07191
 C313 C 0.06020 0.02728 0.02452
 C314 C -0.02809 -0.06564 -0.00388
 C315 C -0.07658 -0.01637 -0.01620
 C316 C -0.02180 -0.02320 -0.05951
 H317 H -0.06059 0.01879 0.01025
 H318 H 0.00611 0.00953 -0.04329
 H319 H 0.02031 0.04308 0.03418
 H320 H -0.00003 -0.04230 0.02494
 H321 H -0.03263 -0.03273 0.05994
 H322 H 0.00542 -0.03415 0.06294
 H323 H -0.01768 0.03432 -0.05980
 H324 H 0.00528 0.06198 -0.03699
 H325 H -0.07624 -0.00327 0.03558
 H326 H -0.05087 0.02613 0.05894
 H327 H 0.03305 -0.01715 -0.04779
 H328 H 0.05254 0.01341 -0.02874
 H329 H -0.04846 0.06698 0.00581
 H330 H -0.06863 0.04188 -0.01819
 H331 H 0.05007 -0.02836 0.02607
 H332 H 0.02741 -0.05824 0.00434
 O333 O -0.00229 0.55427 0.54607
 O334 O -0.04223 0.54747 0.54283
 O335 O 0.02160 0.49121 0.57532
 O336 O 0.01994 0.45363 0.56693
 O337 O 0.05712 0.52121 0.52062
 O338 O 0.05041 0.52149 0.48112
 O339 O -0.03785 0.43621 0.50760
 O340 O -0.03375 0.43981 0.54740
 O341 O -0.06365 0.49605 0.48387
 O342 O -0.05378 0.53716 0.48749
 O343 O -0.00440 0.46787 0.45505
 O344 O 0.03577 0.46676 0.46526
 O345 O -0.00829 0.43546 0.48325
 O346 O 0.03406 0.44220 0.48852
 O347 O -0.03227 0.49504 0.45558
 O348 O -0.02770 0.53738 0.46544
 O349 O -0.06637 0.46815 0.51005
 O350 O -0.06150 0.46861 0.54722
 O351 O 0.02616 0.55498 0.52048
 O352 O 0.02587 0.54786 0.48101
 O353 O 0.05434 0.49275 0.54635
 O354 O 0.04432 0.45171 0.53911
 O355 O -0.00282 0.52162 0.57501
 O356 O -0.04479 0.52047 0.56522
 Zr357 Zr -0.01715 0.52138 0.54272
 O358 O -0.03902 0.50303 0.52102
 Zr359 Zr 0.02108 0.47940 0.54227
 O360 O 0.00068 0.45895 0.52082
 Zr361 Zr 0.02449 0.52191 0.50542
 O362 O 0.00453 0.50312 0.48222
 Zr363 Zr -0.03383 0.46757 0.52480
 O364 O -0.01379 0.48578 0.54867
 Zr365 Zr -0.03032 0.50952 0.48782
 O366 O -0.01022 0.53039 0.50956
 Zr367 Zr 0.00818 0.46759 0.48782
 O368 O 0.03044 0.48635 0.50926
 O369 O 0.01727 0.51472 0.53827
 O370 O -0.02658 0.47414 0.49163
 C371 C 0.01442 0.56427 0.53618
 C372 C 0.01204 0.50866 0.58457
 C373 C 0.06529 0.50899 0.53655
 C374 C -0.02631 0.42667 0.49200
 C375 C -0.07466 0.48017 0.49414
 C376 C -0.02061 0.47924 0.44582
 H377 H -0.05501 0.50720 0.52437
 H378 H 0.00914 0.50737 0.46703
 H379 H 0.02702 0.52396 0.54848
 H380 H 0.00315 0.44240 0.52376
 H381 H -0.02816 0.44609 0.56178
 H382 H 0.01021 0.44093 0.56113
 H383 H -0.01490 0.53417 0.45523
 H384 H 0.01080 0.55554 0.48116
 H385 H -0.05560 0.47571 0.56108
 H386 H -0.04152 0.50827 0.57616
 H387 H 0.03622 0.48179 0.45762
 H388 H 0.05748 0.50604 0.48174
 H389 H -0.04131 0.55509 0.52821
 H390 H -0.06355 0.53568 0.50075
 H391 H 0.05421 0.45517 0.52626
 H392 H 0.03010 0.43092 0.50014
 O393 O 0.56400 0.02982 0.49011
 O394 O 0.55489 0.02493 0.45197
 O395 O 0.50805 0.06949 0.51448
 O396 O 0.46980 0.06687 0.51406
 O397 O 0.52962 0.01064 0.55122
 O398 O 0.52651 -0.02949 0.54648
 O399 O 0.44044 0.00651 0.46402
 O400 O 0.45104 0.04528 0.46203
 O401 O 0.49485 -0.03148 0.43842
 O402 O 0.53654 -0.03148 0.44487
 O403 O 0.46598 -0.05116 0.49678
 O404 O 0.46895 -0.03839 0.53585
 O405 O 0.43890 -0.01879 0.49266
 O406 O 0.44744 -0.01139 0.53308
 O407 O 0.49365 -0.05738 0.47119
 O408 O 0.53638 -0.05141 0.47215
 O409 O 0.47020 -0.00158 0.43452
 O410 O 0.47782 0.04093 0.43712
 O411 O 0.56176 0.00664 0.52039
 O412 O 0.55048 -0.03398 0.52127
 O413 O 0.50561 0.04119 0.54812
 O414 O 0.46430 0.04013 0.53940
 O415 O 0.53461 0.06483 0.48731
 O416 O 0.53097 0.05156 0.44905
 Zr417 Zr 0.53049 0.03005 0.47722
 O418 O 0.50868 0.00858 0.45814
 Zr419 Zr 0.49117 0.03765 0.51610
 O420 O 0.46729 0.01739 0.49825
 Zr421 Zr 0.52785 -0.00570 0.52010
 O422 O 0.50534 -0.02826 0.50330
 Zr423 Zr 0.47460 0.01784 0.46411
 O424 O 0.49652 0.04094 0.48164
 Zr425 Zr 0.51109 -0.02564 0.46909
 O426 O 0.53533 -0.00471 0.48603
 Zr427 Zr 0.47147 -0.01718 0.50751
 O428 O 0.49383 0.00343 0.52701
 O429 O 0.52506 0.02867 0.51126
 O430 O 0.47701 -0.01656 0.47345
 C431 C 0.57273 0.02009 0.50726
 C432 C 0.52449 0.07681 0.50235
 C433 C 0.51986 0.02871 0.55899
 C434 C 0.42996 -0.00828 0.47608
 C435 C 0.47926 -0.02055 0.42782
 C436 C 0.47617 -0.06380 0.48244
 H437 H 0.51259 0.00983 0.44227
 H438 H 0.50764 -0.04411 0.50876
 H439 H 0.53567 0.03869 0.51987
 H440 H 0.45166 0.02302 0.50113
 H441 H 0.45879 0.05906 0.46839
 H442 H 0.45608 0.06227 0.50539
 H443 H 0.53326 -0.06009 0.48589
 H444 H 0.55886 -0.03413 0.50704
 H445 H 0.48991 0.03520 0.42713
 H446 H 0.51666 0.06059 0.44941
 H447 H 0.48144 -0.04980 0.53517
 H448 H 0.51095 -0.02835 0.55276
 H449 H 0.55981 0.00868 0.45311
 H450 H 0.53567 -0.01891 0.43391
 H451 H 0.46566 0.02671 0.54938
 H452 H 0.43779 0.00180 0.52872
 O453 O 0.56975 0.52277 -0.00129
 O454 O 0.55968 0.52036 -0.03971
 O455 O 0.51005 0.55128 0.02824
 O456 O 0.47232 0.54313 0.02791
 O457 O 0.54064 0.49223 0.05838
 O458 O 0.54341 0.45283 0.04937
 O459 O 0.44981 0.48342 -0.02740
 O460 O 0.45412 0.52384 -0.02438
 O461 O 0.50892 0.45913 -0.05817
 O462 O 0.54974 0.46274 -0.05145
 O463 O 0.48514 0.42746 0.00029
 O464 O 0.48715 0.43748 0.04012
 O465 O 0.45358 0.45493 -0.00193
 O466 O 0.46130 0.46077 0.03948
 O467 O 0.50937 0.42949 -0.02901
 O468 O 0.55236 0.43982 -0.02604
 O469 O 0.47824 0.48297 -0.05677
 O470 O 0.48061 0.52635 -0.05078
 O471 O 0.57199 0.49662 0.02666
 O472 O 0.56670 0.45484 0.02333
 O473 O 0.51245 0.51913 0.05880
 O474 O 0.47159 0.51349 0.05099
 O475 O 0.53566 0.55302 -0.00003
 O476 O 0.53244 0.54361 -0.03913
 Zr477 Zr 0.53599 0.51932 -0.01338
 O478 O 0.51647 0.49710 -0.03396
 Zr479 Zr 0.49757 0.51719 0.02692
 O480 O 0.47594 0.49536 0.00790
 Zr481 Zr 0.54018 0.47935 0.02570
 O482 O 0.52038 0.45555 0.00721
 Zr483 Zr 0.48166 0.50044 -0.02610
 O484 O 0.50098 0.52465 -0.00712
 Zr485 Zr 0.52421 0.46263 -0.02671
 O486 O 0.54603 0.48493 -0.00828
 Zr487 Zr 0.48549 0.46099 0.01346
 O488 O 0.50550 0.48269 0.03425
 O489 O 0.53219 0.51370 0.02044
 O490 O 0.48954 0.46612 -0.02036
 C491 C 0.58043 0.51282 0.01468
 C492 C 0.52485 0.56205 0.01639
 C493 C 0.52861 0.50770 0.06813
 C494 C 0.44265 0.46521 -0.01754
 C495 C 0.49048 0.46753 -0.06637
 C496 C 0.49455 0.41892 -0.01706
 H497 H 0.51950 0.50065 -0.04969
 H498 H 0.52507 0.43968 0.01090
 H499 H 0.54161 0.52419 0.02980
 H500 H 0.45973 0.49814 0.01158
 H501 H 0.46027 0.53824 -0.01767
 H502 H 0.45887 0.53721 0.01957
 H503 H 0.54907 0.42763 -0.01510
 H504 H 0.57397 0.45710 0.00871
 H505 H 0.49192 0.52254 -0.06235
 H506 H 0.51679 0.54989 -0.03794
 H507 H 0.50110 0.42814 0.03819
 H508 H 0.52826 0.45120 0.05643
 H509 H 0.56793 0.50551 -0.03944
 H510 H 0.54802 0.47711 -0.06001
 H511 H 0.47458 0.49888 0.05885
 H512 H 0.44885 0.47150 0.03556
 O513 O 0.79190 0.30527 0.49741
 O514 O 0.79451 0.29014 0.53451
 O515 O 0.80742 0.24840 0.45622
 O516 O 0.79495 0.21191 0.45133
 O517 O 0.75043 0.29060 0.44234
 O518 O 0.71183 0.29163 0.45592
 O519 O 0.74595 0.18535 0.51197
 O520 O 0.78510 0.18736 0.50388
 O521 O 0.73325 0.24083 0.55541
 O522 O 0.74027 0.28224 0.55447
 O523 O 0.68963 0.22928 0.50073
 O524 O 0.69163 0.23643 0.46120
 O525 O 0.71382 0.19506 0.49284
 O526 O 0.71257 0.20987 0.45286
 O527 O 0.69961 0.24841 0.53248
 O528 O 0.71344 0.29062 0.53431
 O529 O 0.75261 0.20863 0.54529
 O530 O 0.79450 0.20928 0.53288
 O531 O 0.75982 0.31470 0.47796
 O532 O 0.71923 0.31109 0.48480
 O533 O 0.77164 0.25948 0.43239
 O534 O 0.76198 0.21768 0.43447
 O535 O 0.81697 0.26919 0.48716
 O536 O 0.81443 0.26109 0.52638
 Zr537 Zr 0.78662 0.27041 0.50581
 O538 O 0.76683 0.24944 0.52675
 Zr539 Zr 0.77309 0.23900 0.46115
 O540 O 0.75326 0.21615 0.48024
 Zr541 Zr 0.74103 0.28386 0.47527
 O542 O 0.71931 0.26308 0.49440
 Zr543 Zr 0.76505 0.21600 0.51326
 O544 O 0.78701 0.23633 0.49344
 Zr545 Zr 0.73284 0.26092 0.52667
 O546 O 0.75331 0.28387 0.50818
 Zr547 Zr 0.71981 0.22907 0.48212
 O548 O 0.73908 0.25067 0.46103
 O549 O 0.77454 0.27244 0.47347
 O550 O 0.73144 0.22725 0.51470
 C551 C 0.77946 0.31959 0.48653
 C552 C 0.82160 0.26031 0.46808
 C553 C 0.76265 0.27924 0.42842
 C554 C 0.72586 0.18091 0.50429
 C555 C 0.74044 0.22033 0.55903
 C556 C 0.68559 0.23656 0.52046
 H557 H 0.77343 0.24957 0.54189
 H558 H 0.70372 0.26957 0.49427
 H559 H 0.78432 0.28257 0.46437
 H560 H 0.75367 0.20048 0.47369
 H561 H 0.79824 0.19353 0.49545
 H562 H 0.78987 0.19790 0.45918
 H563 H 0.69924 0.29007 0.52531
 H564 H 0.72366 0.31546 0.50015
 H565 H 0.79323 0.21786 0.54706
 H566 H 0.81860 0.24517 0.52208
 H567 H 0.68616 0.25200 0.46522
 H568 H 0.70940 0.27840 0.44569
 H569 H 0.78100 0.29988 0.53746
 H570 H 0.75565 0.27806 0.55998
 H571 H 0.74737 0.22410 0.42898
 H572 H 0.72246 0.19610 0.45278
 O573 O 0.78022 0.81638 0.00378
 O574 O 0.77974 0.80376 0.04212
 O575 O 0.80711 0.75877 -0.03081
 O576 O 0.79911 0.72044 -0.03322
 O577 O 0.74702 0.79174 -0.05487
 O578 O 0.70725 0.79003 -0.04433
 O579 O 0.74507 0.69292 0.02240
 O580 O 0.78504 0.69874 0.01722
 O581 O 0.72284 0.74910 0.06014
 O582 O 0.72703 0.79216 0.05608
 O583 O 0.68751 0.72829 0.00429
 O584 O 0.69274 0.73597 -0.03704
 O585 O 0.71560 0.69736 -0.00193
 O586 O 0.71501 0.70946 -0.04081
 O587 O 0.69008 0.75437 0.03259
 O588 O 0.70030 0.79494 0.03517
 O589 O 0.74757 0.71950 0.05478
 O590 O 0.78879 0.72212 0.04617
 O591 O 0.75119 0.81975 -0.02139
 O592 O 0.71065 0.81332 -0.01716
 O593 O 0.77294 0.76304 -0.05947
 O594 O 0.76849 0.72175 -0.05535
 O595 O 0.81047 0.78226 -0.00048
 O596 O 0.80404 0.77770 0.03813
 Zr597 Zr 0.77790 0.78166 0.01410
 O598 O 0.75825 0.75976 0.03429
 Zr599 Zr 0.77342 0.74561 -0.02896
 O600 O 0.75340 0.72218 -0.01065
 Zr601 Zr 0.73528 0.78730 -0.02220
 O602 O 0.71363 0.76599 -0.00344
 Zr603 Zr 0.76133 0.72543 0.02323
 O604 O 0.78337 0.74699 0.00473
 Zr605 Zr 0.72350 0.76755 0.03014
 O606 O 0.74330 0.79125 0.01174
 Zr607 Zr 0.71871 0.73148 -0.01284
 O608 O 0.73849 0.75311 -0.03351
 O609 O 0.76987 0.77980 -0.01948
 O610 O 0.72667 0.73307 0.02082
 C611 C 0.76849 0.82778 -0.01055
 C612 C 0.81851 0.77260 -0.01802
 C613 C 0.76181 0.78065 -0.06642
 C614 C 0.72715 0.68548 0.01205
 C615 C 0.73286 0.73056 0.06640
 C616 C 0.67946 0.73861 0.02149
 H617 H 0.76313 0.76165 0.04992
 H618 H 0.69758 0.77076 -0.00561
 H619 H 0.77961 0.79010 -0.02846
 H620 H 0.75603 0.70628 -0.01601
 H621 H 0.79864 0.70600 0.01040
 H622 H 0.79344 0.70592 -0.02666
 H623 H 0.69077 0.79621 0.02162
 H624 H 0.71337 0.81961 -0.00205
 H625 H 0.78729 0.73419 0.05773
 H626 H 0.80971 0.76175 0.03644
 H627 H 0.68225 0.74806 -0.03163
 H628 H 0.70686 0.77557 -0.05316
 H629 H 0.76522 0.81244 0.04248
 H630 H 0.74037 0.78780 0.06527
 H631 H 0.75323 0.72486 -0.06183
 H632 H 0.72866 0.69950 -0.04144
 O633 O 1.00392 0.20523 0.21717
 O634 O 0.96570 0.21658 0.21601
 O635 O 1.03578 0.26523 0.18548
 O636 O 1.04004 0.30256 0.19279
 O637 O 1.06691 0.23471 0.24429
 O638 O 1.05853 0.23566 0.28224
 O639 O 0.97980 0.32817 0.24670
 O640 O 0.98392 0.32210 0.20863
 O641 O 0.94867 0.27178 0.27377
 O642 O 0.95389 0.22933 0.27114
 O643 O 1.00800 0.29601 0.30329
 O644 O 1.04826 0.29460 0.29511
 O645 O 1.00555 0.32628 0.27506
 O646 O 1.04910 0.31773 0.26940
 O647 O 0.97954 0.26917 0.30328
 O648 O 0.97878 0.22741 0.29412
 O649 O 0.94875 0.29830 0.24615
 O650 O 0.95724 0.29498 0.20568
 O651 O 1.03293 0.20382 0.24249
 O652 O 1.03073 0.21269 0.28233
 O653 O 1.06807 0.26117 0.21660
 O654 O 1.06161 0.30383 0.22217
 O655 O 1.00879 0.23680 0.18570
 O656 O 0.96790 0.24294 0.19278
 Zr657 Zr 0.99369 0.23976 0.21731
 O658 O 0.97278 0.26056 0.23732
 Zr659 Zr 1.03612 0.27800 0.21827
 O660 O 1.01649 0.30123 0.23744
 Zr661 Zr 1.03362 0.23727 0.25674
 O662 O 1.01499 0.25891 0.27809
 Zr663 Zr 0.98144 0.29526 0.23207
 O664 O 1.00104 0.27453 0.21035
 Zr665 Zr 0.98003 0.25476 0.27106
 O666 O 0.99855 0.23146 0.25104
 Zr667 Zr 1.02163 0.29386 0.27119
 O668 O 1.04303 0.27203 0.25207
 O669 O 1.02855 0.24337 0.22319
 O670 O 0.98675 0.28953 0.26581
 C671 C 1.01961 0.19450 0.22782
 C672 C 1.02468 0.24852 0.17619
 C673 C 1.07701 0.24504 0.22832
 C674 C 0.98968 0.33657 0.26406
 C675 C 0.93938 0.28805 0.26264
 C676 C 0.99153 0.28516 0.31269
 H677 H 0.95657 0.25730 0.23374
 H678 H 1.01881 0.25502 0.29362
 H679 H 1.03767 0.23287 0.21377
 H680 H 1.02055 0.31736 0.23394
 H681 H 0.99192 0.31562 0.19559
 H682 H 1.03014 0.31576 0.19657
 H683 H 0.99254 0.22862 0.30370
 H684 H 1.01584 0.20476 0.28013
 H685 H 0.94634 0.28217 0.20811
 H686 H 0.97124 0.25726 0.18454
 H687 H 1.04777 0.27973 0.30303
 H688 H 1.06602 0.25100 0.28284
 H689 H 0.96373 0.21078 0.23129
 H690 H 0.94342 0.23242 0.25857
 H691 H 1.07091 0.29965 0.23530
 H692 H 1.04405 0.33098 0.26040
 O693 O 0.79435 0.94223 0.74558
 O694 O 0.79019 0.94801 0.70527
 O695 O 0.81452 1.00689 0.77029
 O696 O 0.80189 1.04413 0.76653
 O697 O 0.75980 0.97128 0.80093
 O698 O 0.71959 0.96557 0.79113
 O699 O 0.74315 1.05534 0.71081
 O700 O 0.78431 1.05533 0.71579
 O701 O 0.72805 0.99096 0.68125
 O702 O 0.73760 0.95024 0.69141
 O703 O 0.69072 1.01406 0.73591
 O704 O 0.69887 1.01474 0.77743
 O705 O 0.71424 1.04957 0.73527
 O706 O 0.71686 1.04474 0.77578
 O707 O 0.69732 0.98735 0.70892
 O708 O 0.71146 0.94734 0.71341
 O709 O 0.74818 1.02459 0.68220
 O710 O 0.78675 1.02825 0.68722
 O711 O 0.76562 0.93776 0.77057
 O712 O 0.72538 0.93873 0.76851
 O713 O 0.78255 1.00324 0.79998
 O714 O 0.77277 1.04214 0.79043
 O715 O 0.81978 0.97955 0.74355
 O716 O 0.81195 0.97563 0.70457
 Zr717 Zr 0.78719 0.97388 0.72997
 O718 O 0.76473 0.98985 0.70755
 Zr719 Zr 0.77953 1.01533 0.76740
 O720 O 0.75586 1.03267 0.74699
 Zr721 Zr 0.74668 0.96827 0.76819
 O722 O 0.72208 0.98302 0.74701
 Zr723 Zr 0.76336 1.02551 0.71372
 O724 O 0.78875 1.01009 0.73395
 Zr725 Zr 0.73146 0.97790 0.71366
 O726 O 0.75424 0.96022 0.73484
 Zr727 Zr 0.72280 1.01891 0.75152
 O728 O 0.74598 1.00395 0.77431
 O729 O 0.77989 0.97980 0.76321
 O730 O 0.73022 1.01346 0.71822
 C731 C 0.78384 0.93092 0.76078
 C732 C 0.82700 0.99248 0.75947
 C733 C 0.77370 0.98592 0.81001
 C734 C 0.72416 1.06108 0.71993
 C735 C 0.73508 1.00982 0.67243
 C736 C 0.68451 1.00186 0.71898
 H737 H 0.76971 0.98669 0.69217
 H738 H 0.70683 0.97645 0.75018
 H739 H 0.79094 0.97231 0.77331
 H740 H 0.75648 1.04943 0.75003
 H741 H 0.79954 1.05026 0.72104
 H742 H 0.79400 1.05651 0.75834
 H743 H 0.70053 0.94830 0.72583
 H744 H 0.72601 0.93200 0.75338
 H745 H 0.80132 1.02175 0.69259
 H746 H 0.81904 0.99114 0.70541
 H747 H 0.69026 1.00028 0.77458
 H748 H 0.71840 0.98075 0.79862
 H749 H 0.77767 0.93678 0.70777
 H750 H 0.75044 0.95477 0.68174
 H751 H 0.75774 1.03862 0.79711
 H752 H 0.72887 1.05668 0.77422
 O753 O 0.74009 0.56755 0.22528
 O754 O 0.78139 0.56374 0.23149
 O755 O 0.72508 0.50212 0.19286
 O756 O 0.72714 0.46477 0.20101
 O757 O 0.68265 0.52800 0.24682
 O758 O 0.68834 0.52794 0.28724
 O759 O 0.78098 0.45028 0.26113
 O760 O 0.78025 0.45685 0.22081
 O761 O 0.80351 0.51228 0.28874
 O762 O 0.79075 0.55407 0.28282
 O763 O 0.74800 0.47907 0.31308
 O764 O 0.70532 0.47844 0.30212
 O765 O 0.75026 0.44760 0.28400
 O766 O 0.71005 0.45187 0.28063
 O767 O 0.77010 0.51139 0.31529
 O768 O 0.76599 0.55134 0.30618
 O769 O 0.80804 0.48323 0.26372
 O770 O 0.80721 0.48570 0.22623
 O771 O 0.70973 0.56374 0.24847
 O772 O 0.70953 0.55767 0.28757
 O773 O 0.68955 0.50146 0.21968
 O774 O 0.70130 0.46129 0.22642
 O775 O 0.74648 0.53495 0.19517
 O776 O 0.78617 0.53943 0.20679
 Zr777 Zr 0.75799 0.53597 0.22839
 O778 O 0.78033 0.51845 0.25010
 Zr779 Zr 0.72314 0.49052 0.22571
 O780 O 0.74333 0.47152 0.24789
 Zr781 Zr 0.71447 0.53161 0.26341
 O782 O 0.73515 0.51498 0.28707
 Zr783 Zr 0.77739 0.48259 0.24567
 O784 O 0.75768 0.50013 0.22150
 Zr785 Zr 0.76976 0.52421 0.28286
 O786 O 0.74856 0.54356 0.26128
 Zr787 Zr 0.73394 0.47938 0.28075
 O788 O 0.71143 0.49585 0.25835
 O789 O 0.72403 0.52593 0.23071
 O790 O 0.76830 0.48858 0.27849
 C791 C 0.72136 0.57486 0.23400
 C792 C 0.73418 0.52019 0.18434
 C793 C 0.67666 0.51605 0.22961
 C794 C 0.76857 0.43960 0.27537
 C795 C 0.81513 0.49574 0.28002
 C796 C 0.76147 0.49301 0.32359
 H797 H 0.79626 0.52358 0.24763
 H798 H 0.72976 0.51881 0.30215
 H799 H 0.71433 0.53420 0.21992
 H800 H 0.74167 0.45492 0.24436
 H801 H 0.77619 0.46416 0.20652
 H802 H 0.73823 0.45346 0.20676
 H803 H 0.75030 0.55027 0.31214
 H804 H 0.72370 0.56709 0.28787
 H805 H 0.80320 0.49589 0.21377
 H806 H 0.78641 0.52549 0.19723
 H807 H 0.70760 0.49025 0.31386
 H808 H 0.68203 0.51217 0.28537
 H809 H 0.77746 0.57207 0.24533
 H810 H 0.80359 0.55127 0.27256
 H811 H 0.69038 0.46375 0.23869
 H812 H 0.71143 0.44384 0.26617
 O813 O 0.49084 0.17411 0.71072
 O814 O 0.45093 0.18344 0.71231
 O815 O 0.51874 0.23642 0.68251
 O816 O 0.52163 0.27368 0.69171
 O817 O 0.55140 0.20406 0.73968
 O818 O 0.54259 0.20411 0.77850
 O819 O 0.46333 0.29509 0.74614
 O820 O 0.46622 0.28984 0.70738
 O821 O 0.43060 0.23449 0.76902
 O822 O 0.43894 0.19284 0.76554
 O823 O 0.48915 0.26062 0.80133
 O824 O 0.53121 0.25815 0.79346
 O825 O 0.48924 0.29233 0.77430
 O826 O 0.53112 0.28460 0.77146
 O827 O 0.45975 0.23490 0.79855
 O828 O 0.46314 0.19231 0.78982
 O829 O 0.43279 0.26589 0.74672
 O830 O 0.43902 0.26329 0.70515
 O831 O 0.51856 0.17266 0.73739
 O832 O 0.51665 0.17898 0.77677
 O833 O 0.55160 0.23186 0.71323
 O834 O 0.54444 0.27347 0.72026
 O835 O 0.49131 0.20850 0.68110
 O836 O 0.45169 0.20994 0.68914
 Zr837 Zr 0.47791 0.20786 0.71332
 O838 O 0.45625 0.22747 0.73369
 Zr839 Zr 0.51919 0.24750 0.71585
 O840 O 0.49927 0.26902 0.73635
 Zr841 Zr 0.51803 0.20521 0.75264
 O842 O 0.49812 0.22462 0.77489
 Zr843 Zr 0.46438 0.26264 0.73049
 O844 O 0.48423 0.24321 0.70797
 Zr845 Zr 0.46332 0.21993 0.76701
 O846 O 0.48314 0.19825 0.74656
 Zr847 Zr 0.50440 0.25985 0.76976
 O848 O 0.52648 0.24026 0.74935
 O849 O 0.51267 0.21252 0.71927
 O850 O 0.46968 0.25506 0.76374
 C851 C 0.50673 0.16368 0.72148
 C852 C 0.50686 0.22099 0.67209
 C853 C 0.56115 0.21545 0.72409
 C854 C 0.47356 0.30302 0.76354
 C855 C 0.42250 0.25318 0.76096
 C856 C 0.47121 0.25056 0.80893
 H857 H 0.44014 0.22410 0.72978
 H858 H 0.50161 0.22008 0.79032
 H859 H 0.52202 0.20301 0.70912
 H860 H 0.50310 0.28537 0.73364
 H861 H 0.47357 0.28349 0.69392
 H862 H 0.51187 0.28656 0.69668
 H863 H 0.47516 0.19532 0.80111
 H864 H 0.50102 0.17238 0.77598
 H865 H 0.42703 0.25182 0.70869
 H866 H 0.45161 0.22610 0.68399
 H867 H 0.52839 0.24455 0.80289
 H868 H 0.55031 0.21934 0.77876
 H869 H 0.45170 0.17481 0.72641
 H870 H 0.42911 0.19539 0.75238
 H871 H 0.55295 0.26977 0.73403
 H872 H 0.52917 0.29526 0.75886
 O873 O 0.30411 0.75335 0.46547
 O874 O 0.29656 0.71305 0.46705
 O875 O 0.24202 0.78301 0.44595
 O876 O 0.20367 0.78008 0.45838
 O877 O 0.27771 0.81226 0.50093
 O878 O 0.28438 0.80238 0.53785
 O879 O 0.19084 0.71971 0.51240
 O880 O 0.19119 0.72161 0.47312
 O881 O 0.25303 0.68955 0.52959
 O882 O 0.29174 0.69761 0.52467
 O883 O 0.22946 0.74910 0.56459
 O884 O 0.22823 0.78938 0.55763
 O885 O 0.19442 0.74701 0.53954
 O886 O 0.20226 0.79040 0.53563
 O887 O 0.25472 0.71978 0.56013
 O888 O 0.29669 0.72496 0.54584
 O889 O 0.22089 0.69000 0.50821
 O890 O 0.21808 0.70009 0.46632
 O891 O 0.30945 0.77986 0.49314
 O892 O 0.30722 0.77542 0.53392
 O893 O 0.24675 0.81314 0.47779
 O894 O 0.20637 0.80347 0.48544
 O895 O 0.26841 0.75493 0.44036
 O896 O 0.26598 0.71289 0.44779
 Zr897 Zr 0.27188 0.73908 0.47179
 O898 O 0.25576 0.71626 0.49393
 Zr899 Zr 0.23277 0.77953 0.47934
 O900 O 0.21395 0.75804 0.50062
 Zr901 Zr 0.27899 0.77810 0.51199
 O902 O 0.26167 0.75786 0.53540
 Zr903 Zr 0.22062 0.72310 0.49367
 O904 O 0.23644 0.74465 0.46990
 Zr905 Zr 0.26609 0.72305 0.52691
 O906 O 0.28513 0.74328 0.50430
 Zr907 Zr 0.22614 0.76321 0.53304
 O908 O 0.24380 0.78616 0.51208
 O909 O 0.26772 0.77370 0.47956
 O910 O 0.23092 0.72825 0.52647
 C911 C 0.31582 0.76913 0.47542
 C912 C 0.25653 0.77229 0.43381
 C913 C 0.26411 0.82260 0.48755
 C914 C 0.18388 0.73020 0.52985
 C915 C 0.23484 0.68010 0.52168
 C916 C 0.24077 0.73187 0.57183
 H917 H 0.25908 0.70020 0.48946
 H918 H 0.26766 0.76150 0.55040
 H919 H 0.27591 0.78416 0.46939
 H920 H 0.19748 0.76152 0.49928
 H921 H 0.18478 0.73733 0.47262
 H922 H 0.20310 0.76494 0.45069
 H923 H 0.29387 0.73489 0.55895
 H924 H 0.31559 0.76131 0.52961
 H925 H 0.22970 0.68794 0.46833
 H926 H 0.25072 0.71580 0.44122
 H927 H 0.24407 0.78952 0.56347
 H928 H 0.26924 0.80907 0.54118
 H929 H 0.30653 0.71337 0.48039
 H930 H 0.29157 0.69184 0.50919
 H931 H 0.21065 0.81195 0.49918
 H932 H 0.18885 0.78646 0.52622
 O933 O 0.25473 0.17249 1.01987
 O934 O 0.29625 0.17939 1.01575
 O935 O 0.23205 0.23383 1.05076
 O936 O 0.23534 0.27234 1.04369
 O937 O 0.19635 0.20710 0.99369
 O938 O 0.20451 0.20722 0.95392
 O939 O 0.28990 0.29258 0.98578
 O940 O 0.28675 0.28640 1.02602
 O941 O 0.31821 0.23116 0.96140
 O942 O 0.30756 0.18956 0.96477
 O943 O 0.26071 0.26035 0.93172
 O944 O 0.21796 0.25847 0.94100
 O945 O 0.26232 0.29112 0.95901
 O946 O 0.22077 0.28557 0.96282
 O947 O 0.28818 0.23279 0.93280
 O948 O 0.28314 0.19061 0.94041
 O949 O 0.31875 0.26183 0.98512
 O950 O 0.31594 0.25937 1.02306
 O951 O 0.22696 0.17259 0.99319
 O952 O 0.22723 0.17955 0.95502
 O953 O 0.19920 0.23467 1.02070
 O954 O 0.20926 0.27478 1.01659
 O955 O 0.25766 0.20450 1.04977
 O956 O 0.29788 0.20388 1.04098
 Zr957 Zr 0.27084 0.20512 1.01753
 O958 O 0.29300 0.22454 0.99743
 Zr959 Zr 0.23280 0.24723 1.01813
 O960 O 0.25270 0.26813 0.99700
 Zr961 Zr 0.22933 0.20571 0.97954
 O962 O 0.25001 0.22413 0.95724
 Zr963 Zr 0.28728 0.26011 1.00151
 O964 O 0.26764 0.24076 1.02449
 Zr965 Zr 0.28475 0.21775 0.96409
 O966 O 0.26391 0.19666 0.98418
 Zr967 Zr 0.24587 0.25944 0.96356
 O968 O 0.22357 0.24105 0.98461
 O969 O 0.23638 0.21205 1.01285
 O970 O 0.28044 0.25304 0.96835
 C971 C 0.23805 0.16298 1.00904
 C972 C 0.24261 0.21675 1.05971
 C973 C 0.18799 0.21932 1.00960
 C974 C 0.27932 0.30092 0.96883
 C975 C 0.32783 0.24908 0.97010
 C976 C 0.27778 0.24950 0.92334
 H977 H 0.30906 0.22070 1.00105
 H978 H 0.24586 0.22002 0.94179
 H979 H 0.22637 0.20288 1.02265
 H980 H 0.24992 0.28463 1.00014
 H981 H 0.28252 0.27893 1.04015
 H982 H 0.24382 0.28568 1.03767
 H983 H 0.27041 0.19383 0.93002
 H984 H 0.24286 0.17331 0.95352
 H985 H 0.31150 0.24964 1.03572
 H986 H 0.29672 0.21786 1.05040
 H987 H 0.22100 0.24634 0.92979
 H988 H 0.19689 0.22234 0.95537
 H989 H 0.29299 0.17017 1.00220
 H990 H 0.31810 0.19191 0.97750
 H991 H 0.20128 0.27342 1.00210
 H992 H 0.22331 0.29568 0.97590
 C993 C 0.30046 0.35366 0.82596
 C994 C 0.30751 0.33819 0.80932
 C995 C 0.30692 0.34509 0.78703
 C996 C 0.29974 0.36728 0.78140
 C997 C 0.29240 0.38259 0.79824
 C998 C 0.29275 0.37560 0.82044
 C999 C 0.28518 0.40476 0.79262
 C1000 C 0.28575 0.41206 0.77047
 C1001 C 0.29340 0.39690 0.75387
 C1002 C 0.30011 0.37456 0.75927
 H1003 H 0.31239 0.33322 0.77416
 H1004 H 0.28741 0.38722 0.83356
 H1005 H 0.27971 0.41655 0.80557
 H1006 H 0.30583 0.36309 0.74619
 H1007 H 0.30119 0.34880 0.84326
 H1008 H 0.29401 0.40230 0.73671
 C1009 C 0.32119 -0.14601 0.30669
 C1010 C 0.30462 -0.16245 0.31290
 C1011 C 0.28132 -0.15660 0.31096
 C1012 C 0.27478 -0.13454 0.30381
 C1013 C 0.29165 -0.11839 0.29743
 C1014 C 0.31479 -0.12437 0.29881
 C1015 C 0.28513 -0.09643 0.29004
 C1016 C 0.26196 -0.09007 0.28967
 C1017 C 0.24535 -0.10606 0.29652
 C1018 C 0.25166 -0.12820 0.30323
 H1019 H 0.26831 -0.16912 0.31533
 H1020 H 0.32798 -0.11216 0.29416
 H1021 H 0.29810 -0.08409 0.28507
 H1022 H 0.23847 -0.14027 0.30820
 H1023 H 0.33923 -0.14980 0.30814
 H1024 H 0.22740 -0.10153 0.29633
 C1025 C 0.78489 0.83447 0.80352
 C1026 C 0.80862 0.83325 0.80724
 C1027 C 0.82272 0.85125 0.79960
 C1028 C 0.81330 0.87019 0.78859
 C1029 C 0.78934 0.87163 0.78577
 C1030 C 0.77531 0.85360 0.79312
 C1031 C 0.77981 0.89125 0.77600
 C1032 C 0.79396 0.90923 0.76857
 C1033 C 0.81780 0.90719 0.77052
 C1034 C 0.82740 0.88790 0.78063
 H1035 H 0.84101 0.85063 0.80247
 H1036 H 0.75693 0.85431 0.79088
 H1037 H 0.76139 0.89270 0.77442
 H1038 H 0.84582 0.88699 0.78253
 H1039 H 0.77374 0.82067 0.80890
 H1040 H 0.82896 0.92098 0.76507
 C1041 C 0.46330 0.91552 0.30161
 C1042 C 0.43934 0.91734 0.30245
 C1043 C 0.42587 0.89848 0.29526
 C1044 C 0.43610 0.87846 0.28682
 C1045 C 0.46020 0.87671 0.28643
 C1046 C 0.47364 0.89534 0.29390
 C1047 C 0.47042 0.85633 0.27868
 C1048 C 0.45683 0.83799 0.27066
 C1049 C 0.43291 0.84018 0.27053
 C1050 C 0.42263 0.86013 0.27876
 H1051 H 0.40740 0.89942 0.29624
 H1052 H 0.49213 0.89437 0.29363
 H1053 H 0.48889 0.85476 0.27880
 H1054 H 0.40413 0.86120 0.27886
 H1055 H 0.47404 0.92979 0.30699
 H1056 H 0.42212 0.82611 0.26470
 C1057 C -0.07536 0.90594 0.80097
 C1058 C -0.05861 0.92070 0.81029
 C1059 C -0.03558 0.91383 0.80983
 C1060 C -0.02941 0.89255 0.80044
 C1061 C -0.04638 0.87806 0.79086
 C1062 C -0.06929 0.88495 0.79121
 C1063 C -0.04020 0.85677 0.78147
 C1064 C -0.01733 0.84948 0.78209
 C1065 C -0.00063 0.86394 0.79180
 C1066 C -0.00656 0.88538 0.80068
 H1067 H -0.02249 0.92505 0.81685
 H1068 H -0.08257 0.87398 0.78415
 H1069 H -0.05325 0.84556 0.77434
 H1070 H 0.00666 0.89621 0.80801
 H1071 H -0.09326 0.91056 0.80138
 H1072 H 0.01710 0.85865 0.79248
 C1073 C -0.03095 -0.15788 -0.05582
 C1074 C -0.05479 -0.16147 -0.05457
 C1075 C -0.06757 -0.14700 -0.04050
 C1076 C -0.05694 -0.12878 -0.02885
 C1077 C -0.03343 -0.12418 -0.03197
 C1078 C -0.02048 -0.13919 -0.04504
 C1079 C -0.02350 -0.10418 -0.02267
 C1080 C -0.03669 -0.08903 -0.00975
 C1081 C -0.05941 -0.09519 -0.00482
 C1082 C -0.06959 -0.11458 -0.01467
 H1083 H -0.08591 -0.14927 -0.03925
 H1084 H -0.00232 -0.13627 -0.04725
 H1085 H -0.00581 -0.09999 -0.02621
 H1086 H -0.08752 -0.11812 -0.01163
 H1087 H -0.02047 -0.16909 -0.06592
 H1088 H -0.06984 -0.08424 0.00558
 C1089 C -0.02240 0.32999 0.44756
 C1090 C -0.04614 0.32648 0.44566
 C1091 C -0.06099 0.34333 0.45410
 C1092 C -0.05235 0.36348 0.46407
 C1093 C -0.02846 0.36725 0.46521
 C1094 C -0.01363 0.35031 0.45702
 C1095 C -0.01989 0.38792 0.47442
 C1096 C -0.03493 0.40451 0.48303
 C1097 C -0.05860 0.40024 0.48235
 C1098 C -0.06725 0.38001 0.47278
 H1099 H -0.07933 0.34084 0.45267
 H1100 H 0.00474 0.35278 0.45794
 H1101 H -0.00160 0.39104 0.47502
 H1102 H -0.08560 0.37733 0.47212
 H1103 H -0.01069 0.31707 0.44142
 H1104 H -0.07050 0.41288 0.48872
 C1105 C 0.47059 -0.16112 0.44056
 C1106 C 0.44701 -0.16453 0.44379
 C1107 C 0.43469 -0.14823 0.45614
 C1108 C 0.44553 -0.12842 0.46448
 C1109 C 0.46893 -0.12448 0.46000
 C1110 C 0.48142 -0.14115 0.44842
 C1111 C 0.47921 -0.10363 0.46659
 C1112 C 0.46646 -0.08688 0.47793
 C1113 C 0.44363 -0.09168 0.48357
 C1114 C 0.43316 -0.11215 0.47666
 H1115 H 0.41647 -0.15053 0.45854
 H1116 H 0.49943 -0.13855 0.44506
 H1117 H 0.49693 -0.10026 0.46246
 H1118 H 0.41530 -0.11506 0.48049
 H1119 H 0.48042 -0.17363 0.43129
 H1120 H 0.43355 -0.07925 0.49265
 C1121 C 0.45915 0.34596 -0.08383
 C1122 C 0.45190 0.32954 -0.06828
 C1123 C 0.45569 0.33372 -0.04557
 C1124 C 0.46643 0.35416 -0.03843
 C1125 C 0.47384 0.37047 -0.05423
 C1126 C 0.47014 0.36619 -0.07688
 C1127 C 0.48426 0.39105 -0.04709
 C1128 C 0.48674 0.39590 -0.02434
 C1129 C 0.47935 0.37963 -0.00875
 C1130 C 0.46953 0.35879 -0.01574
 H1131 H 0.45015 0.32107 -0.03356
 H1132 H 0.47550 0.37860 -0.08920
 H1133 H 0.48944 0.40378 -0.05920
 H1134 H 0.46388 0.34653 -0.00341
 H1135 H 0.45615 0.34312 -0.10139
 H1136 H 0.48096 0.38317 0.00887
 C1137 C 0.77739 0.41845 0.45000
 C1138 C 0.80109 0.42113 0.44731
 C1139 C 0.81586 0.40393 0.45519
 C1140 C 0.80703 0.38410 0.46524
 C1141 C 0.78311 0.38121 0.46710
 C1142 C 0.76845 0.39863 0.45976
 C1143 C 0.77421 0.36058 0.47545
 C1144 C 0.78889 0.34270 0.48191
 C1145 C 0.81267 0.34621 0.48113
 C1146 C 0.82168 0.36674 0.47280
 H1147 H 0.83415 0.40572 0.45289
 H1148 H 0.75007 0.39674 0.46116
 H1149 H 0.75583 0.35811 0.47611
 H1150 H 0.84007 0.36874 0.47162
 H1151 H 0.76580 0.43158 0.44411
 H1152 H 0.82432 0.33263 0.48587
 C1153 C 0.79195 0.90498 -0.07591
 C1154 C 0.79668 0.92260 -0.06035
 C1155 C 0.79549 0.91763 -0.03753
 C1156 C 0.78940 0.89542 -0.03039
 C1157 C 0.78391 0.87823 -0.04632
 C1158 C 0.78532 0.88312 -0.06897
 C1159 C 0.77719 0.85632 -0.03939
 C1160 C 0.77624 0.85098 -0.01676
 C1161 C 0.78249 0.86773 -0.00092
 C1162 C 0.78879 0.88995 -0.00769
 H1163 H 0.79944 0.93101 -0.02544
 H1164 H 0.78150 0.86997 -0.08134
 H1165 H 0.77292 0.84321 -0.05164
 H1166 H 0.79316 0.90282 0.00476
 H1167 H 0.79351 0.90813 -0.09352
 H1168 H 0.78196 0.86377 0.01661
 C1169 C 0.80966 0.28871 0.33749
 C1170 C 0.81055 0.31295 0.33723
 C1171 C 0.79901 0.32539 0.35381
 C1172 C 0.78768 0.31385 0.37092
 C1173 C 0.78800 0.28951 0.37167
 C1174 C 0.79865 0.27709 0.35463
 C1175 C 0.77848 0.27806 0.38988
 C1176 C 0.76861 0.29066 0.40736
 C1177 C 0.76723 0.31480 0.40576
 C1178 C 0.77674 0.32630 0.38774
 H1179 H 0.79959 0.34407 0.35388
 H1180 H 0.79885 0.25842 0.35479
 H1181 H 0.77957 0.25944 0.39085
 H1182 H 0.77619 0.34496 0.38734
 H1183 H 0.81801 0.27876 0.32464
 H1184 H 0.75985 0.32498 0.41902
 C1185 C 0.80797 0.78001 -0.15839
 C1186 C 0.80663 0.80384 -0.16233
 C1187 C 0.79459 0.81784 -0.14728
 C1188 C 0.78460 0.80830 -0.12832
 C1189 C 0.78714 0.78454 -0.12397
 C1190 C 0.79854 0.77048 -0.13928
 C1191 C 0.77880 0.77535 -0.10412
 C1192 C 0.76762 0.78954 -0.08864
 C1193 C 0.76392 0.81283 -0.09379
 C1194 C 0.77256 0.82220 -0.11334
 H1195 H 0.79353 0.83624 -0.15004
 H1196 H 0.80041 0.75218 -0.13635
 H1197 H 0.78148 0.75728 -0.10049
 H1198 H 0.77019 0.84039 -0.11654
 H1199 H 0.81682 0.76885 -0.16992
 H1200 H 0.75510 0.82406 -0.08231
 C1201 C 0.28896 0.43188 0.90738
 C1202 C 0.31289 0.43283 0.90998
 C1203 C 0.32603 0.44274 0.89299
 C1204 C 0.31549 0.45227 0.87419
 C1205 C 0.29144 0.45125 0.87174
 C1206 C 0.27836 0.44081 0.88839
 C1207 C 0.28095 0.46091 0.85284
 C1208 C 0.29425 0.47222 0.83680
 C1209 C 0.31815 0.47312 0.83958
 C1210 C 0.32867 0.46308 0.85794
 H1211 H 0.34450 0.44326 0.89453
 H1212 H 0.25990 0.43987 0.88689
 H1213 H 0.26253 0.46004 0.85083
 H1214 H 0.34713 0.46396 0.85950
 H1215 H 0.27842 0.42445 0.92021
 H1216 H 0.32885 0.48133 0.82729
 C1217 C 0.32147 -0.04338 0.40068
 C1218 C 0.30527 -0.05004 0.41659
 C1219 C 0.28201 -0.04558 0.41276
 C1220 C 0.27489 -0.03540 0.39289
 C1221 C 0.29136 -0.02878 0.37703
 C1222 C 0.31461 -0.03254 0.38121
 C1223 C 0.28425 -0.01952 0.35679
 C1224 C 0.26095 -0.01779 0.35171
 C1225 C 0.24464 -0.02419 0.36755
 C1226 C 0.25157 -0.03259 0.38818
 H1227 H 0.26948 -0.05074 0.42496
 H1228 H 0.32740 -0.02777 0.36911
 H1229 H 0.29679 -0.01508 0.34443
 H1230 H 0.23872 -0.03766 0.40009
 H1231 H 0.33944 -0.04701 0.40315
 H1232 H 0.22654 -0.02303 0.36380
 C1233 C -0.04929 -0.02454 -0.15841
 C1234 C -0.05317 -0.04840 -0.16041
 C1235 C -0.04772 -0.06280 -0.14249
 C1236 C -0.03961 -0.05329 -0.12241
 C1237 C -0.03707 -0.02911 -0.12025
 C1238 C -0.04142 -0.01495 -0.13849
 C1239 C -0.03084 -0.01941 -0.09971
 C1240 C -0.02666 -0.03357 -0.08139
 C1241 C -0.02815 -0.05763 -0.08387
 C1242 C -0.03477 -0.06743 -0.10420
 H1243 H -0.05082 -0.08119 -0.14385
 H1244 H -0.03931 0.00358 -0.13718
 H1245 H -0.02946 -0.00083 -0.09789
 H1246 H -0.03650 -0.08600 -0.10557
 H1247 H -0.05322 -0.01323 -0.17212
 H1248 H -0.02500 -0.06880 -0.06985
 C1249 C -0.08290 0.45306 0.36596
 C1250 C -0.06552 0.44861 0.35047
 C1251 C -0.04258 0.45210 0.35698
 C1252 C -0.03708 0.45955 0.37863
 C1253 C -0.05475 0.46437 0.39385
 C1254 C -0.07759 0.46116 0.38729
 C1255 C -0.04927 0.47170 0.41555
 C1256 C -0.02633 0.47340 0.42251
 C1257 C -0.00890 0.46827 0.40735
 C1258 C -0.01420 0.46173 0.38552
 H1259 H -0.02903 0.44854 0.34527
 H1260 H -0.09134 0.46439 0.39882
 H1261 H -0.06280 0.47522 0.42726
 H1262 H -0.00042 0.45796 0.37414
 H1263 H -0.10065 0.44993 0.36163
 H1264 H 0.00888 0.46941 0.41242
 C1265 C 0.44041 -0.02646 0.33167
 C1266 C 0.43858 -0.05063 0.33044
 C1267 C 0.44575 -0.06378 0.34868
 C1268 C 0.45429 -0.05302 0.36797
 C1269 C 0.45537 -0.02867 0.36934
 C1270 C 0.44852 -0.01557 0.35100
 C1271 C 0.46330 -0.01793 0.38899
 C1272 C 0.47076 -0.03130 0.40698
 C1273 C 0.46997 -0.05548 0.40520
 C1274 C 0.46164 -0.06623 0.38598
 H1275 H 0.44435 -0.08241 0.34792
 H1276 H 0.44940 0.00309 0.35161
 H1277 H 0.46399 0.00072 0.39017
 H1278 H 0.46097 -0.08490 0.38521
 H1279 H 0.43520 -0.01604 0.31771
 H1280 H 0.47544 -0.06614 0.41892
 C1281 C 0.41978 0.43265 -0.13583
 C1282 C 0.43540 0.42343 -0.15112
 C1283 C 0.45896 0.42539 -0.14668
 C1284 C 0.46683 0.43636 -0.12722
 C1285 C 0.45097 0.44580 -0.11209
 C1286 C 0.42748 0.44380 -0.11654
 C1287 C 0.45885 0.45679 -0.09265
 C1288 C 0.48240 0.45801 -0.08785
 C1289 C 0.49800 0.44844 -0.10294
 C1290 C 0.49030 0.43790 -0.12254
 H1291 H 0.47112 0.41850 -0.15846
 H1292 H 0.41507 0.45077 -0.10505
 H1293 H 0.44665 0.46369 -0.08090
 H1294 H 0.50269 0.43069 -0.13391
 H1295 H 0.40156 0.43117 -0.13885
 H1296 H 0.51620 0.44907 -0.09952
 C1297 C 0.44519 0.82873 0.39501
 C1298 C 0.44085 0.81097 0.41026
 C1299 C 0.44272 0.78795 0.40329
 C1300 C 0.44947 0.78268 0.38154
 C1301 C 0.45461 0.80068 0.36660
 C1302 C 0.45217 0.82364 0.37344
 C1303 C 0.46206 0.79541 0.34506
 C1304 C 0.46390 0.77236 0.33814
 C1305 C 0.45829 0.75462 0.35295
 C1306 C 0.45132 0.75972 0.37452
 H1307 H 0.43932 0.77422 0.41496
 H1308 H 0.45574 0.83766 0.36216
 H1309 H 0.46603 0.80917 0.33359
 H1310 H 0.44736 0.74571 0.38570
 H1311 H 0.44342 0.84661 0.39995
 H1312 H 0.45957 0.73671 0.34789
 C1313 C -0.04881 0.83364 0.89576
 C1314 C -0.05606 0.81593 0.90995
 C1315 C -0.05359 0.79287 0.90321
 C1316 C -0.04371 0.78750 0.88267
 C1317 C -0.03589 0.80543 0.86878
 C1318 C -0.03862 0.82845 0.87545
 C1319 C -0.02582 0.80005 0.84832
 C1320 C -0.02413 0.77700 0.84127
 C1321 C -0.03220 0.75934 0.85504
 C1322 C -0.04167 0.76452 0.87569
 H1323 H -0.05931 0.77919 0.91405
 H1324 H -0.03299 0.84241 0.86491
 H1325 H -0.02004 0.81378 0.83755
 H1326 H -0.04767 0.75057 0.88606
 H1327 H -0.05097 0.85152 0.90054
 H1328 H -0.03113 0.74147 0.84981
 C1329 C 0.34924 0.79820 0.32986
 C1330 C 0.33292 0.80531 0.31414
 C1331 C 0.33742 0.80228 0.29143
 C1332 C 0.35789 0.79199 0.28451
 C1333 C 0.37394 0.78445 0.30051
 C1334 C 0.36949 0.78774 0.32313
 C1335 C 0.39438 0.77415 0.29365
 C1336 C 0.39935 0.77183 0.27096
 C1337 C 0.38338 0.77950 0.25516
 C1338 C 0.36271 0.78926 0.26187
 H1339 H 0.32489 0.80780 0.27928
 H1340 H 0.38170 0.78229 0.33561
 H1341 H 0.40683 0.76878 0.30596
 H1342 H 0.35067 0.79501 0.24937
 H1343 H 0.34614 0.80068 0.34741
 H1344 H 0.38697 0.77806 0.23760
 C1345 C -0.14317 0.79979 0.82950
 C1346 C -0.15920 0.80555 0.81296
 C1347 C -0.15297 0.80360 0.79053
 C1348 C -0.13095 0.79647 0.78468
 C1349 C -0.11515 0.79030 0.80145
 C1350 C -0.12144 0.79196 0.82380
 C1351 C -0.09320 0.78295 0.79560
 C1352 C -0.08658 0.78247 0.77325
 C1353 C -0.10218 0.78908 0.75672
 C1354 C -0.12432 0.79573 0.76236
 H1355 H -0.16523 0.80797 0.77768
 H1356 H -0.10946 0.78756 0.83687
 H1357 H -0.08104 0.77823 0.80844
 H1358 H -0.13616 0.80056 0.74931
 H1359 H -0.14744 0.80152 0.84688
 H1360 H -0.09728 0.78883 0.73941
 C1361 C 0.92280 0.29199 0.46717
 C1362 C 0.92448 0.29529 0.44415
 C1363 C 0.90574 0.28942 0.43046
 C1364 C 0.88556 0.28062 0.43963
 C1365 C 0.88377 0.27816 0.46289
 C1366 C 0.90260 0.28365 0.47649
 C1367 C 0.86304 0.27080 0.47217
 C1368 C 0.84418 0.26550 0.45844
 C1369 C 0.84647 0.26708 0.43528
 C1370 C 0.86693 0.27472 0.42597
 H1371 H 0.90671 0.29226 0.41273
 H1372 H 0.90160 0.28175 0.49434
 H1373 H 0.86145 0.26955 0.49004
 H1374 H 0.86803 0.27640 0.40810
 H1375 H 0.93707 0.29637 0.47797
 H1376 H 0.83212 0.26329 0.42437
 C1377 C 0.89532 0.80755 -0.07941
 C1378 C 0.91225 0.81104 -0.06299
 C1379 C 0.90757 0.80437 -0.04106
 C1380 C 0.88602 0.79530 -0.03547
 C1381 C 0.86920 0.79192 -0.05217
 C1382 C 0.87412 0.79790 -0.07411
 C1383 C 0.84751 0.78327 -0.04653
 C1384 C 0.84212 0.77882 -0.02427
 C1385 C 0.85892 0.78228 -0.00779
 C1386 C 0.88079 0.79011 -0.01337
 H1387 H 0.92056 0.80667 -0.02832
 H1388 H 0.86141 0.79557 -0.08711
 H1389 H 0.83448 0.78105 -0.05928
 H1390 H 0.89341 0.79267 -0.00033
 H1391 H 0.89841 0.81259 -0.09640
 H1392 H 0.85504 0.77902 0.00947
 C1393 C -0.17527 -0.01992 -0.05466
 C1394 C -0.17636 -0.04396 -0.05772
 C1395 C -0.15748 -0.05738 -0.05153
 C1396 C -0.13781 -0.04708 -0.04247
 C1397 C -0.13661 -0.02284 -0.03986
 C1398 C -0.15551 -0.00942 -0.04594
 C1399 C -0.11650 -0.01256 -0.03131
 C1400 C -0.09801 -0.02640 -0.02486
 C1401 C -0.09956 -0.05039 -0.02738
 C1402 C -0.11921 -0.06068 -0.03618
 H1403 H -0.15798 -0.07589 -0.05409
 H1404 H -0.15500 0.00915 -0.04397
 H1405 H -0.11529 0.00601 -0.02946
 H1406 H -0.11980 -0.07926 -0.03817
 H1407 H -0.18968 -0.00930 -0.05925
 H1408 H -0.08519 -0.06112 -0.02311
 C1409 C -0.15355 0.46147 0.42780
 C1410 C -0.16923 0.45220 0.44304
 C1411 C -0.16375 0.45299 0.46582
 C1412 C -0.14238 0.46119 0.47310
 C1413 C -0.12671 0.47019 0.45761
 C1414 C -0.13271 0.47077 0.43507
 C1415 C -0.10498 0.47757 0.46479
 C1416 C -0.09835 0.47502 0.48708
 C1417 C -0.11414 0.46622 0.50238
 C1418 C -0.13609 0.45970 0.49552
 H1419 H -0.17576 0.44627 0.47781
 H1420 H -0.12096 0.47770 0.42298
 H1421 H -0.09289 0.48426 0.45287
 H1422 H -0.14789 0.45280 0.50762
 H1423 H -0.15709 0.46097 0.41016
 H1424 H -0.10942 0.46427 0.51968
 C1425 C 0.34874 -0.07281 0.45481
 C1426 C 0.33347 -0.05589 0.44724
 C1427 C 0.33987 -0.03252 0.44888
 C1428 C 0.36165 -0.02620 0.45663
 C1429 C 0.37685 -0.04338 0.46409
 C1430 C 0.37009 -0.06659 0.46349
 C1431 C 0.39885 -0.03716 0.47125
 C1432 C 0.40622 -0.01414 0.47019
 C1433 C 0.39114 0.00284 0.46262
 C1434 C 0.36885 -0.00309 0.45621
 H1435 H 0.32821 -0.01935 0.44315
 H1436 H 0.38163 -0.07998 0.46897
 H1437 H 0.41060 -0.05033 0.47670
 H1438 H 0.35747 0.01027 0.45039
 H1439 H 0.34444 -0.09094 0.45339
 H1440 H 0.39660 0.02068 0.46172
 C1441 C 0.34611 0.45953 -0.06078
 C1442 C 0.34413 0.43534 -0.06108
 C1443 C 0.36215 0.42216 -0.05232
 C1444 C 0.38165 0.43289 -0.04322
 C1445 C 0.38368 0.45718 -0.04347
 C1446 C 0.36580 0.47034 -0.05231
 C1447 C 0.40354 0.46784 -0.03488
 C1448 C 0.42106 0.45451 -0.02546
 C1449 C 0.41856 0.43040 -0.02487
 C1450 C 0.39915 0.41968 -0.03384
 H1451 H 0.36095 0.40351 -0.05258
 H1452 H 0.36694 0.48898 -0.05250
 H1453 H 0.40533 0.48644 -0.03542
 H1454 H 0.39786 0.40104 -0.03348
 H1455 H 0.33236 0.47007 -0.06712
 H1456 H 0.43199 0.41973 -0.01802
 C1457 C 0.39086 0.40827 0.80786
 C1458 C 0.40835 0.42244 0.81660
 C1459 C 0.40734 0.44638 0.81334
 C1460 C 0.38905 0.45609 0.80158
 C1461 C 0.37172 0.44164 0.79260
 C1462 C 0.37277 0.41776 0.79584
 C1463 C 0.35332 0.45136 0.78104
 C1464 C 0.35160 0.47539 0.77897
 C1465 C 0.36883 0.48963 0.78799
 C1466 C 0.38758 0.48004 0.79896
 H1467 H 0.42081 0.45738 0.81998
 H1468 H 0.35950 0.40646 0.78927
 H1469 H 0.33975 0.44030 0.77463
 H1470 H 0.40065 0.49137 0.80584
 H1471 H 0.39123 0.38982 0.81040
 H1472 H 0.36761 0.50821 0.78679
 C1473 C 0.40254 -0.05671 0.27864
 C1474 C 0.40761 -0.05336 0.30135
 C1475 C 0.39149 -0.04190 0.31466
 C1476 C 0.37086 -0.03405 0.30559
 C1477 C 0.36539 -0.03877 0.28313
 C1478 C 0.38146 -0.04998 0.26975
 C1479 C 0.34397 -0.03219 0.27454
 C1480 C 0.32851 -0.01993 0.28790
 C1481 C 0.33495 -0.01401 0.30974
 C1482 C 0.35563 -0.02146 0.31868
 H1483 H 0.39488 -0.03919 0.33218
 H1484 H 0.37781 -0.05338 0.25238
 H1485 H 0.33943 -0.03643 0.25752
 H1486 H 0.35976 -0.01725 0.33580
 H1487 H 0.41479 -0.06489 0.26779
 H1488 H 0.32374 -0.00396 0.32015
 C1489 C 0.10946 0.54850 0.67612
 C1490 C 0.09521 0.55806 0.69246
 C1491 C 0.10230 0.55741 0.71483
 C1492 C 0.12377 0.54853 0.72064
 C1493 C 0.13800 0.53920 0.70402
 C1494 C 0.13053 0.53893 0.68186
 C1495 C 0.15976 0.53096 0.70971
 C1496 C 0.16782 0.53258 0.73171
 C1497 C 0.15354 0.54187 0.74812
 C1498 C 0.13159 0.54953 0.74269
 H1499 H 0.09140 0.56462 0.72756
 H1500 H 0.14128 0.53196 0.66889
 H1501 H 0.17075 0.52413 0.69684
 H1502 H 0.12094 0.55672 0.75563
 H1503 H 0.10458 0.54902 0.65877
 H1504 H 0.15938 0.54326 0.76518
 C1505 C 0.08769 0.04345 0.18043
 C1506 C 0.07394 0.05518 0.19585
 C1507 C 0.07947 0.05421 0.21853
 C1508 C 0.09908 0.04257 0.22565
 C1509 C 0.11287 0.03098 0.20997
 C1510 C 0.10681 0.03119 0.18745
 C1511 C 0.13316 0.02046 0.21687
 C1512 C 0.14056 0.02255 0.23897
 C1513 C 0.12647 0.03353 0.25458
 C1514 C 0.10570 0.04315 0.24803
 H1515 H 0.06890 0.06320 0.23046
 H1516 H 0.11730 0.02258 0.17520
 H1517 H 0.14394 0.01208 0.20476
 H1518 H 0.09534 0.05194 0.26027
 H1519 H 0.08386 0.04421 0.16285
 H1520 H 0.13187 0.03525 0.27174
 C1521 C 0.64585 0.71135 0.17417
 C1522 C 0.66146 0.70389 0.19047
 C1523 C 0.65490 0.70468 0.21292
 C1524 C 0.63308 0.71266 0.21891
 C1525 C 0.61788 0.72054 0.20232
 C1526 C 0.62448 0.71988 0.18005
 C1527 C 0.59610 0.72848 0.20816
 C1528 C 0.58884 0.72794 0.23033
 C1529 C 0.60399 0.71995 0.24675
 C1530 C 0.62602 0.71265 0.24113
 H1531 H 0.66675 0.69905 0.22564
 H1532 H 0.61302 0.72577 0.16714
 H1533 H 0.58445 0.73423 0.19530
 H1534 H 0.63736 0.70660 0.25410
 H1535 H 0.65020 0.71058 0.15675
 H1536 H 0.59875 0.71927 0.26394
 C1537 C 0.15437 0.70979 0.67388
 C1538 C 0.16884 0.69997 0.68996
 C1539 C 0.16335 0.70267 0.71256
 C1540 C 0.14306 0.71354 0.71893
 C1541 C 0.12851 0.72298 0.70259
 C1542 C 0.13454 0.72140 0.68015
 C1543 C 0.10771 0.73294 0.70888
 C1544 C 0.10079 0.73266 0.73116
 C1545 C 0.11544 0.72341 0.74732
 C1546 C 0.13658 0.71427 0.74130
 H1547 H 0.17449 0.69552 0.72516
 H1548 H 0.12351 0.72844 0.66739
 H1549 H 0.09633 0.73969 0.69629
 H1550 H 0.14750 0.70703 0.75404
 H1551 H 0.15802 0.70790 0.65638
 H1552 H 0.11036 0.72300 0.76457
 C1553 C 0.58172 0.21776 0.52470
 C1554 C 0.58198 0.20635 0.54511
 C1555 C 0.60264 0.20363 0.55667
 C1556 C 0.62296 0.21270 0.54816
 C1557 C 0.62279 0.22356 0.52720
 C1558 C 0.60207 0.22604 0.51561
 C1559 C 0.64334 0.23167 0.51823
 C1560 C 0.66378 0.22984 0.53036
 C1561 C 0.66366 0.21990 0.55152
 C1562 C 0.64342 0.21111 0.56026
 H1563 H 0.60266 0.19482 0.57248
 H1564 H 0.60160 0.23452 0.49965
 H1565 H 0.64350 0.23943 0.50191
 H1566 H 0.64377 0.20300 0.57641
 H1567 H 0.56577 0.22014 0.51581
 H1568 H 0.67941 0.21819 0.56092
 C1569 C 0.60655 0.66932 0.05335
 C1570 C 0.59055 0.68538 0.06130
 C1571 C 0.59498 0.70908 0.05853
 C1572 C 0.61532 0.71660 0.04854
 C1573 C 0.63108 0.70023 0.04044
 C1574 C 0.62646 0.67665 0.04279
 C1575 C 0.65153 0.70769 0.03073
 C1576 C 0.65688 0.73126 0.02966
 C1577 C 0.64128 0.74745 0.03794
 C1578 C 0.62049 0.74020 0.04700
 H1579 H 0.58279 0.72160 0.06458
 H1580 H 0.63848 0.66388 0.03690
 H1581 H 0.66377 0.69516 0.02493
 H1582 H 0.60870 0.75300 0.05325
 H1583 H 0.60378 0.65102 0.05562
 H1584 H 0.64522 0.76570 0.03739
 C1585 C 0.15948 0.02095 0.06141
 C1586 C 0.16500 0.04457 0.05993
 C1587 C 0.14882 0.05954 0.05049
 C1588 C 0.12737 0.05125 0.04338
 C1589 C 0.12154 0.02776 0.04623
 C1590 C 0.13788 0.01269 0.05496
 C1591 C 0.09947 0.01984 0.04034
 C1592 C 0.08356 0.03499 0.03079
 C1593 C 0.09004 0.05800 0.02712
 C1594 C 0.11153 0.06617 0.03369
 H1595 H 0.15262 0.07778 0.04924
 H1596 H 0.13393 -0.00544 0.05694
 H1597 H 0.09478 0.00195 0.04288
 H1598 H 0.11577 0.08417 0.03113
 H1599 H 0.17172 0.00895 0.06821
 H1600 H 0.07827 0.06985 0.01950
 C1601 C 0.16300 0.55036 0.53653
 C1602 C 0.16632 0.55050 0.55968
 C1603 C 0.14960 0.54052 0.57328
 C1604 C 0.12954 0.53115 0.56398
 C1605 C 0.12588 0.53213 0.54077
 C1606 C 0.14289 0.54141 0.52717
 C1607 C 0.10504 0.52434 0.53167
 C1608 C 0.08807 0.51512 0.54545
 C1609 C 0.09231 0.51329 0.56836
 C1610 C 0.11279 0.52140 0.57758
 H1611 H 0.15188 0.54078 0.59115
 H1612 H 0.14050 0.54212 0.50934
 H1613 H 0.10191 0.52568 0.51397
 H1614 H 0.11535 0.52042 0.59538
 H1615 H 0.17577 0.55784 0.52577
 H1616 H 0.07936 0.50643 0.57932
 C1617 C 0.65217 0.04776 0.56963
 C1618 C 0.66837 0.05302 0.55322
 C1619 C 0.66265 0.04928 0.53077
 C1620 C 0.64088 0.04098 0.52477
 C1621 C 0.62487 0.03560 0.54146
 C1622 C 0.63074 0.03888 0.56383
 C1623 C 0.60299 0.02772 0.53553
 C1624 C 0.59656 0.02591 0.51310
 C1625 C 0.61250 0.03134 0.49658
 C1626 C 0.63462 0.03852 0.50236
 H1627 H 0.67502 0.05327 0.51802
 H1628 H 0.61858 0.03505 0.57681
 H1629 H 0.59063 0.02397 0.54838
 H1630 H 0.64663 0.04266 0.48934
 H1631 H 0.65597 0.05086 0.58700
 H1632 H 0.60780 0.03010 0.47919
 C1633 C 0.65606 0.54993 0.07726
 C1634 C 0.67223 0.55596 0.06104
 C1635 C 0.66715 0.55119 0.03857
 C1636 C 0.64609 0.54109 0.03244
 C1637 C 0.63030 0.53479 0.04904
 C1638 C 0.63549 0.53920 0.07137
 C1639 C 0.60930 0.52466 0.04304
 C1640 C 0.60341 0.52157 0.02060
 C1641 C 0.61896 0.52821 0.00414
 C1642 C 0.64031 0.53756 0.01002
 H1643 H 0.67947 0.55561 0.02591
 H1644 H 0.62346 0.53473 0.08427
 H1645 H 0.59715 0.52001 0.05581
 H1646 H 0.65209 0.54242 -0.00296
 H1647 H 0.65924 0.55369 0.09463
 H1648 H 0.61460 0.52607 -0.01326
 C1649 C 0.03504 0.03650 0.16939
 C1650 C 0.04069 0.06009 0.17041
 C1651 C 0.03449 0.07438 0.15263
 C1652 C 0.02420 0.06495 0.13351
 C1653 C 0.02022 0.04090 0.13206
 C1654 C 0.02508 0.02694 0.15033
 C1655 C 0.01232 0.03111 0.11208
 C1656 C 0.00790 0.04513 0.09370
 C1657 C 0.01051 0.06914 0.09568
 C1658 C 0.01878 0.07898 0.11540
 H1659 H 0.03881 0.09257 0.15319
 H1660 H 0.02182 0.00854 0.14963
 H1661 H 0.01015 0.01258 0.11061
 H1662 H 0.02155 0.09745 0.11626
 H1663 H 0.03935 0.02528 0.18306
 H1664 H 0.00726 0.08018 0.08159
 C1665 C 0.05238 0.57781 0.65196
 C1666 C 0.06091 0.56190 0.66741
 C1667 C 0.05645 0.53823 0.66408
 C1668 C 0.04393 0.53060 0.64541
 C1669 C 0.03518 0.54689 0.63028
 C1670 C 0.03939 0.57042 0.63376
 C1671 C 0.02315 0.53939 0.61139
 C1672 C 0.02059 0.51579 0.60669
 C1673 C 0.02928 0.49963 0.62177
 C1674 C 0.04052 0.50698 0.64119
 H1675 H 0.06302 0.52585 0.67586
 H1676 H 0.03306 0.58309 0.62214
 H1677 H 0.01705 0.55193 0.59960
 H1678 H 0.04720 0.49422 0.65251
 H1679 H 0.05594 0.59605 0.65389
 H1680 H 0.02774 0.48134 0.61831
 C1681 C 0.55148 0.01578 0.65615
 C1682 C 0.55388 0.03926 0.66166
 C1683 C 0.54829 0.05592 0.64566
 C1684 C 0.54038 0.04929 0.62457
 C1685 C 0.53871 0.02564 0.61903
 C1686 C 0.54417 0.00902 0.63496
 C1687 C 0.53179 0.01904 0.59759
 C1688 C 0.52597 0.03577 0.58180
 C1689 C 0.52688 0.05920 0.58771
 C1690 C 0.53428 0.06594 0.60887
 H1691 H 0.55038 0.07409 0.64950
 H1692 H 0.54281 -0.00920 0.63102
 H1693 H 0.53086 0.00089 0.59319
 H1694 H 0.53532 0.08415 0.61293
 H1695 H 0.55554 0.00269 0.66825
 H1696 H 0.52246 0.07234 0.57578
 C1697 C 0.54185 0.56834 0.15183
 C1698 C 0.54801 0.55070 0.16663
 C1699 C 0.54888 0.52785 0.15875
 C1700 C 0.54394 0.52274 0.13641
 C1701 C 0.53722 0.54058 0.12193
 C1702 C 0.53621 0.56329 0.12981
 C1703 C 0.53190 0.53548 0.09972
 C1704 C 0.53391 0.51288 0.09156
 C1705 C 0.54111 0.49532 0.10589
 C1706 C 0.54582 0.50015 0.12822
 H1707 H 0.55368 0.51416 0.16998
 H1708 H 0.53136 0.57720 0.11887
 H1709 H 0.52666 0.54916 0.08866
 H1710 H 0.55108 0.48627 0.13902
 H1711 H 0.54156 0.58616 0.15726
 H1712 H 0.54272 0.47776 0.09988
 C1713 C 0.19944 0.52877 0.59079
 C1714 C 0.19772 0.55284 0.58834
 C1715 C 0.20681 0.56722 0.60519
 C1716 C 0.21680 0.55775 0.62432
 C1717 C 0.21735 0.53356 0.62701
 C1718 C 0.20889 0.51924 0.60999
 C1719 C 0.22610 0.52414 0.64677
 C1720 C 0.23494 0.53864 0.66358
 C1721 C 0.23506 0.56262 0.66035
 C1722 C 0.22589 0.57211 0.64102
 H1723 H 0.20558 0.58577 0.60370
 H1724 H 0.20943 0.50066 0.61159
 H1725 H 0.22604 0.50562 0.64909
 H1726 H 0.22571 0.59068 0.63923
 H1727 H 0.19300 0.51727 0.57794
 H1728 H 0.24157 0.57415 0.67317
 C1729 C 0.21922 0.04262 0.09304
 C1730 C 0.19542 0.04374 0.08959
 C1731 C 0.18074 0.03735 0.10687
 C1732 C 0.18960 0.03032 0.12735
 C1733 C 0.21352 0.03034 0.13104
 C1734 C 0.22820 0.03621 0.11364
 C1735 C 0.22224 0.02481 0.15213
 C1736 C 0.20728 0.01848 0.16921
 C1737 C 0.18365 0.01755 0.16497
 C1738 C 0.17484 0.02370 0.14435
 H1739 H 0.16239 0.03854 0.10461
 H1740 H 0.24658 0.03612 0.11603
 H1741 H 0.24052 0.02534 0.15526
 H1742 H 0.15648 0.02342 0.14177
 H1743 H 0.23082 0.04744 0.07991
 H1744 H 0.17188 0.01269 0.17790
 C1745 C 0.69076 0.21393 0.64914
 C1746 C 0.69050 0.18979 0.65073
 C1747 C 0.70152 0.17659 0.63431
 C1748 C 0.71256 0.18735 0.61652
 C1749 C 0.71233 0.21163 0.61490
 C1750 C 0.70148 0.22476 0.63134
 C1751 C 0.72251 0.22236 0.59664
 C1752 C 0.73292 0.20918 0.57982
 C1753 C 0.73366 0.18506 0.58197
 C1754 C 0.72355 0.17425 0.60014
 H1755 H 0.70130 0.15794 0.63536
 H1756 H 0.70121 0.24341 0.63040
 H1757 H 0.72178 0.24096 0.59526
 H1758 H 0.72393 0.15561 0.60114
 H1759 H 0.68262 0.22439 0.66175
 H1760 H 0.74130 0.17445 0.56917
 C1761 C 0.69533 0.72993 0.16226
 C1762 C 0.69479 0.70588 0.16488
 C1763 C 0.70341 0.69170 0.14790
 C1764 C 0.71183 0.70136 0.12829
 C1765 C 0.71143 0.72554 0.12545
 C1766 C 0.70346 0.73969 0.14268
 C1767 C 0.71860 0.73510 0.10530
 C1768 C 0.72655 0.72081 0.08810
 C1769 C 0.72759 0.69687 0.09139
 C1770 C 0.72015 0.68721 0.11126
 H1771 H 0.70287 0.67313 0.14971
 H1772 H 0.70319 0.75825 0.14087
 H1773 H 0.71791 0.75360 0.10296
 H1774 H 0.72064 0.66866 0.11318
 H1775 H 0.68887 0.74110 0.17523
 H1776 H 0.73352 0.68550 0.07832
 C1777 C 0.57945 0.69865 0.10791
 C1778 C 0.56312 0.68950 0.09295
 C1779 C 0.53977 0.69132 0.09819
 C1780 C 0.53289 0.70141 0.11833
 C1781 C 0.54950 0.71062 0.13313
 C1782 C 0.57270 0.70936 0.12762
 C1783 C 0.54269 0.72022 0.15350
 C1784 C 0.51956 0.71990 0.15967
 C1785 C 0.50318 0.71072 0.14485
 C1786 C 0.50974 0.70185 0.12423
 H1787 H 0.52703 0.68441 0.08679
 H1788 H 0.58566 0.71617 0.13880
 H1789 H 0.55547 0.72692 0.16498
 H1790 H 0.49678 0.69480 0.11315
 H1791 H 0.59754 0.69718 0.10451
 H1792 H 0.48527 0.71028 0.14932
 C1793 C 0.02615 0.69971 0.58912
 C1794 C 0.04985 0.70120 0.58535
 C1795 C 0.06364 0.71299 0.60103
 C1796 C 0.05422 0.72225 0.62041
 C1797 C 0.03067 0.71932 0.62472
 C1798 C 0.01671 0.70833 0.60879
 C1799 C 0.02168 0.72708 0.64502
 C1800 C 0.03590 0.73823 0.66075
 C1801 C 0.05899 0.74218 0.65561
 C1802 C 0.06814 0.73404 0.63576
 H1803 H 0.08189 0.71455 0.59844
 H1804 H -0.00147 0.70627 0.61159
 H1805 H 0.00377 0.72416 0.64870
 H1806 H 0.08618 0.73665 0.63258
 H1807 H 0.01502 0.69144 0.57701
 H1808 H 0.07027 0.75082 0.66734
 C1809 C 0.51918 0.57837 0.19851
 C1810 C 0.54298 0.57548 0.20018
 C1811 C 0.55626 0.59262 0.21073
 C1812 C 0.54610 0.61272 0.21881
 C1813 C 0.52232 0.61605 0.21606
 C1814 C 0.50893 0.59857 0.20625
 C1815 C 0.51251 0.63703 0.22259
 C1816 C 0.52619 0.65447 0.23218
 C1817 C 0.54962 0.65052 0.23572
 C1818 C 0.55952 0.62988 0.22897
 H1819 H 0.57465 0.59069 0.21184
 H1820 H 0.49065 0.60071 0.20417
 H1821 H 0.49440 0.63993 0.21995
 H1822 H 0.57775 0.62753 0.23130
 H1823 H 0.50869 0.56527 0.19051
 H1824 H 0.56052 0.66378 0.24296
 C1825 C 0.08579 0.60749 0.70292
 C1826 C 0.06858 0.59150 0.69695
 C1827 C 0.04555 0.59742 0.70030
 C1828 C 0.03975 0.61925 0.70863
 C1829 C 0.05724 0.63503 0.71475
 C1830 C 0.08019 0.62888 0.71205
 C1831 C 0.05148 0.65693 0.72285
 C1832 C 0.02848 0.66362 0.72406
 C1833 C 0.01121 0.64800 0.71767
 C1834 C 0.01678 0.62583 0.71033
 H1835 H 0.03216 0.58526 0.69575
 H1836 H 0.09380 0.64087 0.71643
 H1837 H 0.06489 0.66910 0.72742
 H1838 H 0.00317 0.61402 0.70556
 H1839 H 0.10362 0.60359 0.70009
 H1840 H -0.00661 0.65293 0.71850
 C1841 C 0.07688 0.15149 0.04683
 C1842 C 0.06144 0.16834 0.05430
 C1843 C 0.03787 0.16497 0.05054
 C1844 C 0.02987 0.14487 0.03980
 C1845 C 0.04570 0.12846 0.03193
 C1846 C 0.06914 0.13199 0.03538
 C1847 C 0.03785 0.10816 0.02170
 C1848 C 0.01441 0.10310 0.02058
 C1849 C -0.00131 0.11952 0.02827
 C1850 C 0.00636 0.14047 0.03740
 H1851 H 0.02585 0.17777 0.05635
 H1852 H 0.08146 0.11936 0.02979
 H1853 H 0.05005 0.09557 0.01598
 H1854 H -0.00606 0.15278 0.04341
 H1855 H 0.09505 0.15339 0.04995
 H1856 H -0.01950 0.11590 0.02769
 C1857 C 0.05641 0.66298 0.53447
 C1858 C 0.05254 0.66866 0.55692
 C1859 C 0.04204 0.65211 0.57054
 C1860 C 0.03487 0.63076 0.56181
 C1861 C 0.03929 0.62510 0.53938
 C1862 C 0.05011 0.64137 0.52587
 C1863 C 0.03277 0.60331 0.53092
 C1864 C 0.02107 0.58752 0.54442
 C1865 C 0.01602 0.59384 0.56644
 C1866 C 0.02321 0.61501 0.57516
 H1867 H 0.03955 0.65571 0.58802
 H1868 H 0.05354 0.63746 0.50860
 H1869 H 0.03651 0.59879 0.51384
 H1870 H 0.01943 0.61915 0.59232
 H1871 H 0.06445 0.67529 0.52354
 H1872 H 0.00675 0.58222 0.57711
 C1873 C 0.55605 0.15610 0.56358
 C1874 C 0.55567 0.17377 0.54775
 C1875 C 0.55083 0.16823 0.52544
 C1876 C 0.54557 0.14544 0.51917
 C1877 C 0.54479 0.12812 0.53553
 C1878 C 0.55029 0.13354 0.55761
 C1879 C 0.53831 0.10566 0.52959
 C1880 C 0.53303 0.10008 0.50746
 C1881 C 0.53483 0.11697 0.49105
 C1882 C 0.54086 0.13963 0.49690
 H1883 H 0.55088 0.18166 0.51306
 H1884 H 0.55015 0.12034 0.57026
 H1885 H 0.53723 0.09246 0.54220
 H1886 H 0.54159 0.15264 0.48411
 H1887 H 0.56060 0.15990 0.58067
 H1888 H 0.53080 0.11281 0.47391
 C1889 C 0.55127 0.64047 0.08166
 C1890 C 0.55886 0.65653 0.06589
 C1891 C 0.55630 0.65117 0.04316
 C1892 C 0.54720 0.62979 0.03632
 C1893 C 0.53967 0.61385 0.05237
 C1894 C 0.54151 0.61948 0.07497
 C1895 C 0.53119 0.59221 0.04559
 C1896 C 0.53098 0.58589 0.02301
 C1897 C 0.53848 0.60185 0.00717
 C1898 C 0.54621 0.62374 0.01374
 H1899 H 0.56204 0.66342 0.03086
 H1900 H 0.53599 0.60739 0.08750
 H1901 H 0.52582 0.57987 0.05796
 H1902 H 0.55201 0.63570 0.00121
 H1903 H 0.55335 0.64395 0.09923
 H1904 H 0.53852 0.59730 -0.01030
 C1905 C 0.72382 0.08301 0.54369
 C1906 C 0.70004 0.08145 0.54655
 C1907 C 0.68602 0.09901 0.53814
 C1908 C 0.69568 0.11827 0.52775
 C1909 C 0.71970 0.12010 0.52585
 C1910 C 0.73359 0.10219 0.53349
 C1911 C 0.72946 0.14017 0.51707
 C1912 C 0.71554 0.15847 0.51013
 C1913 C 0.69164 0.15602 0.51112
 C1914 C 0.68179 0.13611 0.51991
 H1915 H 0.66767 0.09810 0.54046
 H1916 H 0.75202 0.10324 0.53203
 H1917 H 0.74792 0.14182 0.51630
 H1918 H 0.66334 0.13494 0.52116
 H1919 H 0.73487 0.06956 0.54989
 H1920 H 0.68054 0.16994 0.50605
 C1921 C 0.72755 0.58910 0.05527
 C1922 C 0.70374 0.58532 0.05455
 C1923 C 0.68995 0.60098 0.04289
 C1924 C 0.69964 0.62059 0.03310
 C1925 C 0.72331 0.62507 0.03552
 C1926 C 0.73721 0.60892 0.04615
 C1927 C 0.73254 0.64595 0.02792
 C1928 C 0.71848 0.66214 0.01734
 C1929 C 0.69536 0.65657 0.01337
 C1930 C 0.68592 0.63618 0.02152
 H1931 H 0.67158 0.59851 0.04228
 H1932 H 0.75545 0.61184 0.04784
 H1933 H 0.75050 0.64981 0.03068
 H1934 H 0.66783 0.63282 0.01909
 H1935 H 0.73861 0.57711 0.06381
 H1936 H 0.68428 0.66839 0.00470
 C1937 C 0.17888 0.65117 0.70474
 C1938 C 0.19523 0.66672 0.69655
 C1939 C 0.21854 0.66272 0.70052
 C1940 C 0.22554 0.64311 0.71207
 C1941 C 0.20896 0.62751 0.72020
 C1942 C 0.18567 0.63183 0.71667
 C1943 C 0.21597 0.60730 0.73076
 C1944 C 0.23930 0.60202 0.73245
 C1945 C 0.25567 0.61780 0.72475
 C1946 C 0.24884 0.63837 0.71491
 H1947 H 0.23117 0.67468 0.69416
 H1948 H 0.17275 0.61995 0.72262
 H1949 H 0.20325 0.59494 0.73624
 H1950 H 0.26175 0.65013 0.70875
 H1951 H 0.16085 0.65383 0.70154
 H1952 H 0.27374 0.61390 0.72580
 C1953 C 0.22123 0.16541 0.19122
 C1954 C 0.19755 0.16938 0.18953
 C1955 C 0.18246 0.15341 0.19935
 C1956 C 0.19080 0.13372 0.21014
 C1957 C 0.21456 0.12942 0.21072
 C1958 C 0.22963 0.14552 0.20140
 C1959 C 0.22277 0.10901 0.22042
 C1960 C 0.20753 0.09318 0.23012
 C1961 C 0.18403 0.09816 0.23019
 C1962 C 0.17572 0.11809 0.22012
 H1963 H 0.16417 0.15608 0.19828
 H1964 H 0.24793 0.14272 0.20195
 H1965 H 0.24094 0.10539 0.22037
 H1966 H 0.15746 0.12117 0.21995
 H1967 H 0.23330 0.17761 0.18436
 H1968 H 0.17193 0.08616 0.23736
 C1969 C 0.71436 1.15992 0.68310
 C1970 C 0.69049 1.15953 0.67991
 C1971 C 0.67808 1.13982 0.68622
 C1972 C 0.68938 1.12067 0.69517
 C1973 C 0.71348 1.12098 0.69745
 C1974 C 0.72576 1.14079 0.69157
 C1975 C 0.72488 1.10144 0.70546
 C1976 C 0.71242 1.08187 0.71187
 C1977 C 0.68843 1.08196 0.71013
 C1978 C 0.67702 1.10110 0.70164
 H1979 H 0.65972 1.13923 0.68370
 H1980 H 0.74420 1.14144 0.69341
 H1981 H 0.74337 1.10153 0.70692
 H1982 H 0.65855 1.10056 0.70009
 H1983 H 0.72426 1.17499 0.67861
 H1984 H 0.67853 1.06695 0.71485
 C1985 C 0.71822 0.67436 0.19655
 C1986 C 0.69427 0.67592 0.19451
 C1987 C 0.68073 0.65725 0.20146
 C1988 C 0.69089 0.63728 0.20999
 C1989 C 0.71499 0.63561 0.21128
 C1990 C 0.72848 0.65438 0.20469
 C1991 C 0.72513 0.61517 0.21901
 C1992 C 0.71137 0.59670 0.22604
 C1993 C 0.68743 0.59883 0.22509
 C1994 C 0.67729 0.61881 0.21699
 H1995 H 0.66230 0.65802 0.19972
 H1996 H 0.74696 0.65356 0.20570
 H1997 H 0.74359 0.61373 0.21977
 H1998 H 0.65881 0.61978 0.21616
 H1999 H 0.72902 0.68856 0.19144
 H2000 H 0.67645 0.58475 0.23020
 C2001 C 0.57172 0.08333 0.70171
 C2002 C 0.55541 0.06779 0.69295
 C2003 C 0.53222 0.07407 0.69255
 C2004 C 0.52552 0.09589 0.70016
 C2005 C 0.54211 0.11121 0.70910
 C2006 C 0.56509 0.10471 0.71000
 C2007 C 0.53559 0.13305 0.71651
 C2008 C 0.51280 0.14018 0.71451
 C2009 C 0.49639 0.12507 0.70535
 C2010 C 0.50266 0.10293 0.69847
 H2011 H 0.51960 0.06220 0.68573
 H2012 H 0.57802 0.11638 0.71661
 H2013 H 0.54842 0.14479 0.72321
 H2014 H 0.48974 0.09147 0.69152
 H2015 H 0.58972 0.07909 0.70176
 H2016 H 0.47872 0.13034 0.70368
 C2017 C 1.07144 0.10583 0.20198
 C2018 C 1.05215 0.09210 0.19679
 C2019 C 1.03024 0.10135 0.19981
 C2020 C 1.02760 0.12402 0.20764
 C2021 C 1.04710 0.13754 0.21304
 C2022 C 1.06894 0.12823 0.21021
 C2023 C 1.04444 0.16031 0.22066
 C2024 C 1.02254 0.16994 0.22220
 C2025 C 1.00329 0.15637 0.21677
 C2026 C 1.00576 0.13354 0.20980
 H2027 H 1.01530 0.09091 0.19591
 H2028 H 1.08409 0.13837 0.21405
 H2029 H 1.05937 0.17082 0.22449
 H2030 H 0.99063 0.12347 0.20569
 H2031 H 1.08852 0.09924 0.19949
 H2032 H 0.98625 0.16353 0.21785
 C2033 C 0.17384 0.60061 0.55540
 C2034 C 0.19140 0.58516 0.56102
 C2035 C 0.21425 0.59166 0.55737
 C2036 C 0.21944 0.61316 0.54795
 C2037 C 0.20155 0.62814 0.54168
 C2038 C 0.17883 0.62176 0.54563
 C2039 C 0.20667 0.64943 0.53190
 C2040 C 0.22948 0.65651 0.52929
 C2041 C 0.24716 0.64161 0.53576
 C2042 C 0.24219 0.62000 0.54472
 H2043 H 0.22787 0.57987 0.56161
 H2044 H 0.16492 0.63315 0.54124
 H2045 H 0.19293 0.66081 0.52703
 H2046 H 0.25614 0.60882 0.54947
 H2047 H 0.15612 0.59610 0.55834
 H2048 H 0.26489 0.64673 0.53394
 C2049 C 0.20350 0.09185 1.07646
 C2050 C 0.19642 0.07462 1.06131
 C2051 C 0.19966 0.07816 1.03846
 C2052 C 0.20993 0.09863 1.03092
 C2053 C 0.21751 0.11545 1.04646
 C2054 C 0.21416 0.11192 1.06915
 C2055 C 0.22780 0.13583 1.03906
 C2056 C 0.22990 0.14018 1.01632
 C2057 C 0.22209 0.12360 1.00090
 C2058 C 0.21250 0.10281 1.00814
 H2059 H 0.19417 0.06502 1.02669
 H2060 H 0.21958 0.12479 1.08124
 H2061 H 0.23322 0.14881 1.05098
 H2062 H 0.20668 0.09023 0.99595
 H2063 H 0.20081 0.08972 1.09409
 H2064 H 0.22335 0.12680 0.98326
 C2065 C 0.20346 0.67217 0.64760
 C2066 C 0.19989 0.69033 0.66275
 C2067 C 0.20778 0.71251 0.65765
 C2068 C 0.21848 0.71674 0.63731
 C2069 C 0.22154 0.69850 0.62187
 C2070 C 0.21420 0.67621 0.62733
 C2071 C 0.23089 0.70309 0.60091
 C2072 C 0.23653 0.72580 0.59510
 C2073 C 0.23421 0.74360 0.61085
 C2074 C 0.22548 0.73908 0.63185
 H2075 H 0.20523 0.72645 0.66944
 H2076 H 0.21634 0.66201 0.61575
 H2077 H 0.23226 0.68940 0.58864
 H2078 H 0.22335 0.75323 0.64349
 H2079 H 0.19752 0.65494 0.65137
 H2080 H 0.23838 0.76123 0.60655
 C2081 C 0.19951 0.22217 1.15361
 C2082 C 0.20040 0.19841 1.15831
 C2083 C 0.21104 0.18363 1.14299
 C2084 C 0.22018 0.19230 1.12323
 C2085 C 0.21792 0.21595 1.11810
 C2086 C 0.20784 0.23079 1.13360
 C2087 C 0.22546 0.22421 1.09745
 C2088 C 0.23605 0.20922 1.08228
 C2089 C 0.23944 0.18607 1.08829
 C2090 C 0.23123 0.17760 1.10833
 H2091 H 0.21164 0.16528 1.14614
 H2092 H 0.20622 0.24902 1.13017
 H2093 H 0.22304 0.24216 1.09318
 H2094 H 0.23345 0.15951 1.11210
 H2095 H 0.19166 0.23400 1.16522
 H2096 H 0.24792 0.17422 1.07718
 C2097 C 0.70916 0.58005 0.10376
 C2098 C 0.70339 0.56199 0.08904
 C2099 C 0.70638 0.53908 0.09578
 C2100 C 0.71454 0.53423 0.11717
 C2101 C 0.72033 0.55255 0.13181
 C2102 C 0.71777 0.57539 0.12488
 C2103 C 0.72788 0.54775 0.15340
 C2104 C 0.72903 0.52489 0.16082
 C2105 C 0.72338 0.50679 0.14613
 C2106 C 0.71643 0.51140 0.12440
 H2107 H 0.70186 0.52513 0.08448
 H2108 H 0.72195 0.58963 0.13595
 H2109 H 0.73184 0.56185 0.16473
 H2110 H 0.71202 0.49716 0.11342
 H2111 H 0.70665 0.59782 0.09896
 H2112 H 0.72413 0.48904 0.15154
 C2113 C 0.71009 1.07339 0.59439
 C2114 C 0.70107 1.05637 0.58003
 C2115 C 0.70157 1.03314 0.58655
 C2116 C 0.71038 1.02706 0.60740
 C2117 C 0.71939 1.04436 0.62163
 C2118 C 0.71934 1.06742 0.61492
 C2119 C 0.72788 1.03842 0.64257
 C2120 C 0.72713 1.01543 0.64979
 C2121 C 0.71805 0.99833 0.63559
 C2122 C 0.70991 1.00407 0.61447
 H2123 H 0.69464 1.01996 0.57555
 H2124 H 0.72605 1.08090 0.62572
 H2125 H 0.73451 1.05186 0.65347
 H2126 H 0.70297 0.99060 0.60381
 H2127 H 0.70956 1.09141 0.58986
 H2128 H 0.71726 0.98051 0.64079
 C2129 C 0.56240 0.22596 0.58531
 C2130 C 0.55141 0.20747 0.57408
 C2131 C 0.53110 0.19851 0.58321
 C2132 C 0.52385 0.20545 0.60435
 C2133 C 0.53622 0.22260 0.61613
 C2134 C 0.55496 0.23332 0.60613
 C2135 C 0.53008 0.22828 0.63795
 C2136 C 0.51189 0.21674 0.64834
 C2137 C 0.49916 0.20028 0.63612
 C2138 C 0.50502 0.19478 0.61430
 H2139 H 0.52151 0.18527 0.57438
 H2140 H 0.56435 0.24690 0.61471
 H2141 H 0.54000 0.24111 0.64704
 H2142 H 0.49525 0.18165 0.60546
 H2143 H 0.57729 0.23438 0.57849
 H2144 H 0.48491 0.19125 0.64356
 C2145 C 1.04898 0.18038 0.10074
 C2146 C 1.05873 0.19642 0.08608
 C2147 C 1.05827 0.22000 0.09177
 C2148 C 1.04888 0.22735 0.11203
 C2149 C 1.03912 0.21102 0.12653
 C2150 C 1.03908 0.18761 0.12062
 C2151 C 1.03020 0.21825 0.14700
 C2152 C 1.03159 0.24153 0.15355
 C2153 C 1.04130 0.25765 0.13902
 C2154 C 1.04961 0.25067 0.11832
 H2155 H 1.06567 0.23253 0.08061
 H2156 H 1.03185 0.17482 0.13161
 H2157 H 1.02312 0.20560 0.15825
 H2158 H 1.05710 0.26344 0.10747
 H2159 H 1.04940 0.16211 0.09700
 H2160 H 1.04261 0.27566 0.14375
 C2161 C 0.64088 0.19426 0.66004
 C2162 C 0.65665 0.18616 0.67589
 C2163 C 0.65017 0.18579 0.69838
 C2164 C 0.62837 0.19332 0.70487
 C2165 C 0.61297 0.20191 0.68879
 C2166 C 0.61939 0.20224 0.66643
 C2167 C 0.59131 0.20976 0.69529
 C2168 C 0.58450 0.20849 0.71760
 C2169 C 0.59977 0.19955 0.73340
 C2170 C 0.62161 0.19229 0.72715
 H2171 H 0.66214 0.17972 0.71080
 H2172 H 0.60772 0.20853 0.65384
 H2173 H 0.57950 0.21624 0.68290
 H2174 H 0.63311 0.18565 0.73970
 H2175 H 0.64521 0.19441 0.64260
 H2176 H 0.59485 0.19833 0.75065
 C2177 C 1.15063 0.20391 0.16719
 C2178 C 1.16708 0.19924 0.18367
 C2179 C 1.16246 0.20516 0.20583
 C2180 C 1.14174 0.21582 0.21143
 C2181 C 1.12563 0.22101 0.19459
 C2182 C 1.13021 0.21488 0.17255
 C2183 C 1.10500 0.23179 0.20013
 C2184 C 1.09988 0.23666 0.22238
 C2185 C 1.11580 0.23122 0.23905
 C2186 C 1.13673 0.22119 0.23360
 H2187 H 1.17507 0.20159 0.21859
 H2188 H 1.11795 0.21846 0.15947
 H2189 H 1.09249 0.23546 0.18728
 H2190 H 1.14879 0.21723 0.24674
 H2191 H 1.15379 0.19924 0.15005
 H2192 H 1.11196 0.23464 0.25632
 C2193 C 0.08036 0.72334 0.54854
 C2194 C 0.08070 0.70103 0.55733
 C2195 C 0.10154 0.68946 0.55961
 C2196 C 0.12201 0.70015 0.55331
 C2197 C 0.12161 0.72261 0.54424
 C2198 C 0.10065 0.73402 0.54186
 C2199 C 0.14214 0.73308 0.53749
 C2200 C 0.16285 0.72125 0.53969
 C2201 C 0.16315 0.69928 0.54920
 C2202 C 0.14290 0.68877 0.55599
 H2203 H 0.10174 0.67240 0.56683
 H2204 H 0.09999 0.75123 0.53502
 H2205 H 0.14196 0.74999 0.52993
 H2206 H 0.14353 0.67166 0.56307
 H2207 H 0.06433 0.73247 0.54704
 H2208 H 0.17913 0.69014 0.55109
 C2209 C 0.10797 0.20555 1.07471
 C2210 C 0.09129 0.19890 1.05896
 C2211 C 0.09674 0.19989 1.03624
 C2212 C 0.11892 0.20564 1.02943
 C2213 C 0.13558 0.21200 1.04545
 C2214 C 0.12979 0.21239 1.06800
 C2215 C 0.15795 0.21707 1.03871
 C2216 C 0.16413 0.21500 1.01626
 C2217 C 0.14752 0.20848 1.00049
 C2218 C 0.12499 0.20417 1.00697
 H2219 H 0.08400 0.19489 1.02395
 H2220 H 0.14241 0.21709 1.08050
 H2221 H 0.17077 0.22181 1.05103
 H2222 H 0.11245 0.19916 0.99450
 H2223 H 0.10441 0.20461 1.09229
 H2224 H 0.15194 0.20689 0.98311
 C2225 C 0.57439 0.54275 0.22309
 C2226 C 0.57371 0.54579 0.19994
 C2227 C 0.59325 0.54054 0.18746
 C2228 C 0.61331 0.53308 0.19793
 C2229 C 0.61420 0.53130 0.22132
 C2230 C 0.59450 0.53579 0.23372
 C2231 C 0.63488 0.52547 0.23187
 C2232 C 0.65436 0.52072 0.21916
 C2233 C 0.65297 0.52161 0.19589
 C2234 C 0.63270 0.52795 0.18537
 H2235 H 0.59315 0.54309 0.16966
 H2236 H 0.59474 0.53427 0.25163
 H2237 H 0.63586 0.52469 0.24982
 H2238 H 0.63228 0.52912 0.16743
 H2239 H 0.55949 0.54651 0.23302
 H2240 H 0.66787 0.51819 0.18581
 C2241 C 0.58351 1.03249 0.71638
 C2242 C 0.58168 1.03420 0.69316
 C2243 C 0.59980 1.02645 0.67992
 C2244 C 0.61993 1.01830 0.68971
 C2245 C 0.62219 1.01810 0.71310
 C2246 C 0.60366 1.02468 0.72629
 C2247 C 0.64318 1.01206 0.72283
 C2248 C 0.66167 1.00575 0.70940
 C2249 C 0.65885 1.00486 0.68623
 C2250 C 0.63820 1.01124 0.67645
 H2251 H 0.59869 1.02789 0.66202
 H2252 H 0.60496 1.02438 0.74423
 H2253 H 0.64525 1.01265 0.74072
 H2254 H 0.63672 1.01119 0.65851
 H2255 H 0.56963 1.03820 0.72685
 H2256 H 0.67298 1.00021 0.67558
 C2257 C 0.89575 0.43151 0.30361
 C2258 C 0.90862 0.44703 0.31682
 C2259 C 0.90072 0.46992 0.31909
 C2260 C 0.88002 0.47681 0.30911
 C2261 C 0.86763 0.46101 0.29572
 C2262 C 0.87580 0.43854 0.29284
 C2263 C 0.84697 0.46770 0.28579
 C2264 C 0.83782 0.48979 0.28965
 C2265 C 0.85015 0.50536 0.30320
 C2266 C 0.87121 0.49904 0.31260
 H2267 H 0.91040 0.48221 0.32905
 H2268 H 0.86645 0.42620 0.28264
 H2269 H 0.83770 0.45540 0.27549
 H2270 H 0.88039 0.51139 0.32292
 H2271 H 0.90091 0.41371 0.30183
 H2272 H 0.84355 0.52245 0.30645
 C2273 C 0.89882 0.96291 0.82754
 C2274 C 0.91511 0.95472 0.81238
 C2275 C 0.91186 0.95854 0.78960
 C2276 C 0.89214 0.96972 0.78197
 C2277 C 0.87577 0.97769 0.79737
 C2278 C 0.87942 0.97447 0.82013
 C2279 C 0.85543 0.98760 0.78974
 C2280 C 0.85065 0.98852 0.76695
 C2281 C 0.86728 0.98125 0.75173
 C2282 C 0.88804 0.97225 0.75918
 H2283 H 0.92447 0.95237 0.77790
 H2284 H 0.86697 0.98032 0.83214
 H2285 H 0.84255 0.99281 0.80152
 H2286 H 0.90038 0.96626 0.74713
 H2287 H 0.90103 0.96005 0.84516
 H2288 H 0.86382 0.98170 0.73405
 C2289 C 0.35496 0.32316 0.80045
 C2290 C 0.33695 0.30767 0.80477
 C2291 C 0.33937 0.28433 0.79885
 C2292 C 0.35957 0.27653 0.78891
 C2293 C 0.37732 0.29240 0.78425
 C2294 C 0.37486 0.31565 0.79010
 C2295 C 0.39744 0.28469 0.77422
 C2296 C 0.40041 0.26119 0.76946
 C2297 C 0.38290 0.24544 0.77445
 C2298 C 0.36247 0.25310 0.78381
 H2299 H 0.32556 0.27230 0.80208
 H2300 H 0.38842 0.32799 0.78689
 H2301 H 0.41116 0.29683 0.77088
 H2302 H 0.34912 0.24067 0.78741
 H2303 H 0.35362 0.34115 0.80516
 H2304 H 0.38505 0.22722 0.77105
 C2305 C 0.86059 0.30515 0.32822
 C2306 C 0.84535 0.31540 0.31317
 C2307 C 0.85166 0.31757 0.29080
 C2308 C 0.87312 0.31011 0.28363
 C2309 C 0.88823 0.29968 0.29889
 C2310 C 0.88177 0.29714 0.32110
 C2311 C 0.90971 0.29229 0.29177
 C2312 C 0.91653 0.29559 0.26969
 C2313 C 0.90154 0.30624 0.25470
 C2314 C 0.87989 0.31327 0.26157
 H2315 H 0.83998 0.32550 0.27913
 H2316 H 0.89326 0.28934 0.33303
 H2317 H 0.92130 0.28438 0.30356
 H2318 H 0.86853 0.32135 0.24970
 H2319 H 0.85623 0.30373 0.34560
 H2320 H 0.90647 0.30891 0.23760
 C2321 C 0.41648 0.80175 0.46691
 C2322 C 0.41614 0.80534 0.44382
 C2323 C 0.39629 0.79959 0.43171
 C2324 C 0.37680 0.79126 0.44254
 C2325 C 0.37693 0.78885 0.46590
 C2326 C 0.39701 0.79380 0.47787
 C2327 C 0.35694 0.78174 0.47683
 C2328 C 0.33714 0.77636 0.46454
 C2329 C 0.33744 0.77815 0.44129
 C2330 C 0.35701 0.78574 0.43039
 H2331 H 0.39574 0.80235 0.41394
 H2332 H 0.39757 0.79179 0.49573
 H2333 H 0.35682 0.78020 0.49475
 H2334 H 0.35662 0.78742 0.41249
 H2335 H 0.43170 0.80577 0.47653
 H2336 H 0.32226 0.77420 0.43154
 C2337 C 0.40397 0.31728 0.94280
 C2338 C 0.41964 0.30102 0.93461
 C2339 C 0.41415 0.27739 0.93596
 C2340 C 0.39312 0.27017 0.94473
 C2341 C 0.37768 0.28672 0.95304
 C2342 C 0.38332 0.31020 0.95210
 C2343 C 0.35668 0.27957 0.96180
 C2344 C 0.35055 0.25609 0.96186
 C2345 C 0.36583 0.23977 0.95327
 C2346 C 0.38708 0.24672 0.94501
 H2347 H 0.42612 0.26467 0.92986
 H2348 H 0.37157 0.32312 0.95823
 H2349 H 0.34481 0.29235 0.96800
 H2350 H 0.39864 0.23380 0.93858
 H2351 H 0.40757 0.33556 0.94171
 H2352 H 0.36140 0.22161 0.95308
 C2353 C 0.79286 0.42942 0.39934
 C2354 C 0.79947 0.44678 0.41452
 C2355 C 0.79581 0.46998 0.40907
 C2356 C 0.78616 0.47579 0.38849
 C2357 C 0.77958 0.45815 0.37337
 C2358 C 0.78288 0.43503 0.37902
 C2359 C 0.77040 0.46393 0.35260
 C2360 C 0.76836 0.48713 0.34644
 C2361 C 0.77484 0.50455 0.36159
 C2362 C 0.78343 0.49893 0.38254
 H2363 H 0.80076 0.48341 0.42077
 H2364 H 0.77808 0.42130 0.36758
 H2365 H 0.76582 0.45038 0.34087
 H2366 H 0.78841 0.51266 0.39388
 H2367 H 0.79570 0.41144 0.40316
 H2368 H 0.77345 0.52254 0.35713
 C2369 C 0.77047 0.95068 0.90698
 C2370 C 0.79374 0.95454 0.91208
 C2371 C 0.80751 0.96577 0.89641
 C2372 C 0.79853 0.97210 0.87573
 C2373 C 0.77559 0.96662 0.87019
 C2374 C 0.76157 0.95633 0.88613
 C2375 C 0.76725 0.97121 0.84871
 C2376 C 0.78140 0.98201 0.83309
 C2377 C 0.80371 0.98861 0.83934
 C2378 C 0.81234 0.98336 0.86029
 H2379 H 0.82547 0.96880 0.89992
 H2380 H 0.74383 0.95235 0.88239
 H2381 H 0.74989 0.96642 0.84417
 H2382 H 0.82987 0.98797 0.86435
 H2383 H 0.75940 0.94241 0.91890
 H2384 H 0.81478 0.99730 0.82776
 C2385 C 0.29966 0.77928 0.34035
 C2386 C 0.29901 0.80352 0.33878
 C2387 C 0.28763 0.81604 0.35543
 C2388 C 0.27770 0.80466 0.37350
 C2389 C 0.28003 0.78053 0.37568
 C2390 C 0.29065 0.76795 0.35876
 C2391 C 0.27228 0.76955 0.39501
 C2392 C 0.26147 0.78235 0.41180
 C2393 C 0.25761 0.80602 0.40848
 C2394 C 0.26600 0.81714 0.38975
 H2395 H 0.28717 0.83468 0.35480
 H2396 H 0.29228 0.74940 0.35990
 H2397 H 0.27512 0.75125 0.39722
 H2398 H 0.26366 0.83558 0.38819
 H2399 H 0.30794 0.76910 0.32763
 H2400 H 0.24900 0.81625 0.42091
 C2401 C 0.28136 0.30328 0.83507
 C2402 C 0.30525 0.30259 0.83242
 C2403 C 0.31841 0.28983 0.84751
 C2404 C 0.30800 0.27842 0.86523
 C2405 C 0.28411 0.28013 0.86833
 C2406 C 0.27091 0.29235 0.85297
 C2407 C 0.27397 0.27002 0.88698
 C2408 C 0.28740 0.25783 0.90228
 C2409 C 0.31098 0.25545 0.89847
 C2410 C 0.32121 0.26578 0.88021
 H2411 H 0.33683 0.28930 0.84581
 H2412 H 0.25255 0.29366 0.85492
 H2413 H 0.25578 0.27193 0.88979
 H2414 H 0.33953 0.26423 0.87804
 H2415 H 0.27082 0.31271 0.82347
 H2416 H 0.32177 0.24641 0.91017
 C2417 C 0.47366 0.29437 0.90272
 C2418 C 0.44988 0.29642 0.90535
 C2419 C 0.43521 0.28773 0.88870
 C2420 C 0.44415 0.27736 0.86959
 C2421 C 0.46811 0.27614 0.86675
 C2422 C 0.48271 0.28449 0.88352
 C2423 C 0.47703 0.26694 0.84706
 C2424 C 0.46227 0.25844 0.83043
 C2425 C 0.43850 0.25901 0.83374
 C2426 C 0.42951 0.26856 0.85309
 H2427 H 0.41687 0.28951 0.89042
 H2428 H 0.50111 0.28355 0.88172
 H2429 H 0.49538 0.26650 0.84459
 H2430 H 0.41111 0.26931 0.85501
 H2431 H 0.48525 0.30083 0.91543
 H2432 H 0.42682 0.25282 0.82098
 C2433 C 0.95137 0.27488 0.40712
 C2434 C 0.95365 0.29814 0.41373
 C2435 C 0.96411 0.31373 0.39906
 C2436 C 0.97194 0.30632 0.37827
 C2437 C 0.96830 0.28326 0.37137
 C2438 C 0.95819 0.26762 0.38602
 C2439 C 0.97475 0.27630 0.34993
 C2440 C 0.98573 0.29189 0.33569
 C2441 C 0.99064 0.31433 0.34336
 C2442 C 0.98334 0.32165 0.36424
 H2443 H 0.96589 0.33174 0.40361
 H2444 H 0.95562 0.24976 0.38119
 H2445 H 0.97137 0.25878 0.34439
 H2446 H 0.98670 0.33928 0.36943
 H2447 H 0.94387 0.26235 0.41818
 H2448 H 0.99974 0.32642 0.33303
 C2449 C 0.44573 0.37461 0.83480
 C2450 C 0.43802 0.39177 0.82022
 C2451 C 0.44020 0.38819 0.79720
 C2452 C 0.44921 0.36758 0.78883
 C2453 C 0.45695 0.35049 0.80364
 C2454 C 0.45528 0.35423 0.82660
 C2455 C 0.46574 0.32975 0.79522
 C2456 C 0.46622 0.32563 0.77219
 C2457 C 0.45832 0.34265 0.75764
 C2458 C 0.45015 0.36358 0.76588
 H2459 H 0.43451 0.40137 0.78580
 H2460 H 0.46096 0.34124 0.83820
 H2461 H 0.47140 0.31649 0.80657
 H2462 H 0.44417 0.37647 0.75431
 H2463 H 0.44402 0.37683 0.85257
 H2464 H 0.45848 0.33975 0.73986
 C2465 C 0.94925 0.40236 0.33450
 C2466 C 0.94225 0.42007 0.32015
 C2467 C 0.94780 0.41836 0.29745
 C2468 C 0.95943 0.39894 0.28915
 C2469 C 0.96633 0.38137 0.30384
 C2470 C 0.96134 0.38336 0.32649
 C2471 C 0.97741 0.36171 0.29555
 C2472 C 0.98109 0.35887 0.27269
 C2473 C 0.97411 0.37637 0.25816
 C2474 C 0.96369 0.39639 0.26635
 H2475 H 0.94257 0.43190 0.28624
 H2476 H 0.96633 0.36996 0.33796
 H2477 H 0.98203 0.34800 0.30673
 H2478 H 0.95841 0.40957 0.25478
 H2479 H 0.94500 0.40306 0.35195
 H2480 H 0.97652 0.37442 0.24044
 C2481 C 0.29118 0.90193 0.42600
 C2482 C 0.30012 0.91692 0.44240
 C2483 C 0.29774 0.91109 0.46487
 C2484 C 0.28756 0.89010 0.47085
 C2485 C 0.27874 0.87517 0.45417
 C2486 C 0.28034 0.88140 0.43184
 C2487 C 0.26947 0.85376 0.46003
 C2488 C 0.26987 0.84661 0.48218
 C2489 C 0.27842 0.86157 0.49871
 C2490 C 0.28685 0.88335 0.49313
 H2491 H 0.30449 0.92258 0.47761
 H2492 H 0.27385 0.87007 0.41885
 H2493 H 0.26333 0.84207 0.44723
 H2494 H 0.29360 0.89452 0.50612
 H2495 H 0.29302 0.90588 0.40857
 H2496 H 0.27895 0.85622 0.51589
 C2497 C 0.31441 0.40206 0.96383
 C2498 C 0.31523 0.40347 0.94053
 C2499 C 0.30871 0.38414 0.92777
 C2500 C 0.30168 0.36366 0.93807
 C2501 C 0.30144 0.36224 0.96153
 C2502 C 0.30774 0.38163 0.97423
 C2503 C 0.29472 0.34154 0.97180
 C2504 C 0.28756 0.32259 0.95882
 C2505 C 0.28777 0.32432 0.93554
 C2506 C 0.29495 0.34455 0.92527
 H2507 H 0.30947 0.38497 0.90983
 H2508 H 0.30753 0.38099 0.99220
 H2509 H 0.29449 0.34035 0.98974
 H2510 H 0.29505 0.34529 0.90730
 H2511 H 0.31924 0.41680 0.97399
 H2512 H 0.28253 0.30984 0.92522
 C2513 C 0.83355 0.36513 0.31120
 C2514 C 0.81725 0.34733 0.31297
 C2515 C 0.79451 0.35145 0.30668
 C2516 C 0.78811 0.37307 0.29858
 C2517 C 0.80477 0.39069 0.29636
 C2518 C 0.82740 0.38658 0.30285
 C2519 C 0.79844 0.41222 0.28798
 C2520 C 0.77557 0.41655 0.28247
 C2521 C 0.75906 0.39912 0.28504
 C2522 C 0.76532 0.37743 0.29278
 H2523 H 0.78191 0.33775 0.30801
 H2524 H 0.84029 0.39997 0.30160
 H2525 H 0.81110 0.42581 0.28644
 H2526 H 0.75232 0.36418 0.29449
 H2527 H 0.85111 0.36234 0.31626
 H2528 H 0.74129 0.40231 0.28095
   
