data_POSCAR
  _audit_creation_date              2014-09-24
  _audit_creation_method            'ToBaCCo'
  _symmetry_space_group_name_H-M    'P1'
  _symmetry_Int_Tables_number       1
  _symmetry_cell_setting            triclinic
  loop_
  _symmetry_equiv_pos_as_xyz
 x,y,z
_cell_length_a 27.5889
_cell_length_b 27.5777
_cell_length_c 26.3897
_cell_angle_alpha 89.925100
_cell_angle_beta 89.856100
_cell_angle_gamma 89.666900
loop_
  _atom_site_label
  _atom_site_type_symbol
  _atom_site_fract_x
  _atom_site_fract_y
  _atom_site_fract_z
C1 C 0.36727 0.00100 0.25152
 C2 C 0.13069 -0.00184 0.74943
 C3 C 0.63766 0.50005 0.24858
 C4 C 0.87210 0.49438 0.75186
 C5 C 0.25353 0.38309 1.00120
 C6 C 0.74799 0.11580 0.99847
 C7 C 0.24809 0.61402 0.49584
 C8 C 0.75025 0.88394 0.49996
 C9 C -0.00212 0.25259 0.38159
 C10 C -0.00176 0.75076 0.11566
 C11 C 0.50074 0.24797 0.61637
 C12 C 0.50196 0.74899 0.87271
 C13 C -0.24890 0.62117 0.99963
 C14 C -0.25264 0.38147 0.49942
 C15 C 0.24849 -0.11399 -0.00510
 C16 C 0.24548 1.11663 0.50518
 C17 C 0.13448 0.50286 0.25144
 C18 C -0.13347 1.00052 0.25256
 C19 C 0.36538 0.49682 -0.24986
 C20 C 0.63303 -0.00098 -0.25021
 C21 C -0.00071 0.24968 0.87377
 C22 C 0.50061 0.25195 0.13382
 C23 C 0.00256 0.75256 0.63404
 C24 C 0.49759 0.74959 0.36960
 B25 B -0.02707 0.02375 1.05186
 B26 B -0.05826 0.01862 0.99532
 B27 B -0.01187 0.06096 0.99939
 B28 B 0.03255 0.03552 1.03663
 B29 B 0.01489 -0.01972 1.05213
 B30 B -0.04194 -0.03026 1.02698
 B31 B 0.02066 -0.01951 0.94876
 B32 B 0.05379 -0.01470 1.00419
 B33 B 0.00681 -0.05653 1.00143
 B34 B -0.03769 -0.03127 0.96428
 B35 B -0.01932 0.02441 0.94831
 B36 B 0.03677 0.03456 0.97405
 B37 B 0.47035 0.52035 0.54519
 B38 B 0.44090 0.51418 0.48798
 B39 B 0.48786 0.55593 0.49052
 B40 B 0.53031 0.53139 0.53133
 B41 B 0.51112 0.47659 0.54819
 B42 B 0.45569 0.46577 0.52093
 B43 B 0.52292 0.47378 0.44514
 B44 B 0.55183 0.47979 0.50268
 B45 B 0.50541 0.43868 0.49813
 B46 B 0.46264 0.46323 0.45807
 B47 B 0.48130 0.51862 0.44147
 B48 B 0.53717 0.52830 0.46888
 B49 B 0.51813 0.97391 0.55415
 B50 B 0.55016 0.97680 0.49762
 B51 B 0.50221 0.93660 0.50112
 B52 B 0.45858 0.96464 0.53860
 B53 B 0.47873 1.01929 0.55371
 B54 B 0.53533 1.02767 0.52902
 B55 B 0.47253 1.01891 0.45084
 B56 B 0.44041 1.01656 0.50688
 B57 B 0.48827 1.05554 0.50290
 B58 B 0.53184 1.02792 0.46595
 B59 B 0.51192 0.97282 0.45081
 B60 B 0.45467 0.96554 0.47609
 B61 B 0.02942 0.47741 1.04976
 B62 B 0.05907 0.48165 0.99236
 B63 B 0.01178 0.44052 0.99745
 B64 B -0.03104 0.46685 1.03661
 B65 B -0.01145 0.52156 1.05156
 B66 B 0.04448 0.53139 1.02406
 B67 B -0.02148 0.52139 0.94847
 B68 B -0.05207 0.51822 1.00601
 B69 B -0.00525 0.55831 1.00066
 B70 B 0.03807 0.53236 0.96167
 B71 B 0.01881 0.47708 0.94740
 B72 B -0.03709 0.46806 0.97387
 B73 B 0.02104 0.52633 0.44944
 B74 B 0.05379 0.51921 0.50450
 B75 B 0.00708 0.56191 0.50538
 B76 B -0.03803 0.53833 0.46715
 B77 B -0.02066 0.48294 0.44852
 B78 B 0.03638 0.47118 0.47216
 B79 B -0.02447 0.47961 0.55223
 B80 B -0.05868 0.48722 0.49736
 B81 B -0.01205 0.44475 0.49845
 B82 B 0.03393 0.46825 0.53495
 B83 B 0.01676 0.52380 0.55323
 B84 B -0.04079 0.53478 0.53005
 B85 B 0.52528 0.02393 -0.04759
 B86 B 0.55694 0.01819 0.00817
 B87 B 0.50924 0.05969 0.00681
 B88 B 0.46544 0.03336 -0.03180
 B89 B 0.48512 -0.02140 -0.04898
 B90 B 0.54176 -0.03013 -0.02474
 B91 B 0.47898 -0.02302 0.05461
 B92 B 0.44637 -0.01906 -0.00093
 B93 B 0.49484 -0.05902 -0.00018
 B94 B 0.53827 -0.03309 0.03822
 B95 B 0.51884 0.02228 0.05561
 B96 B 0.46196 0.03112 0.03031
 B97 B 0.47535 0.47799 -0.04915
 B98 B 0.44448 0.48451 0.00687
 B99 B 0.49201 0.44228 0.00534
 B100 B 0.53530 0.46708 -0.03460
 B101 B 0.51618 0.52168 -0.05174
 B102 B 0.46008 0.53311 -0.02531
 B103 B 0.52410 0.52395 0.05198
 B104 B 0.55560 0.51917 -0.00540
 B105 B 0.50903 0.55998 -0.00203
 B106 B 0.46491 0.53531 0.03715
 B107 B 0.48336 0.47961 0.05386
 B108 B 0.54031 0.47009 0.02762
 B109 B -0.02379 0.97777 0.45167
 B110 B -0.05793 0.98438 0.50605
 B111 B -0.00922 0.94320 0.50755
 B112 B 0.03510 0.96802 0.47013
 B113 B 0.01623 1.02251 0.45102
 B114 B -0.04140 1.03264 0.47400
 B115 B 0.01873 1.02684 0.55534
 B116 B 0.05359 1.01951 0.49987
 B117 B 0.00570 1.06087 0.50059
 B118 B -0.03994 1.03604 0.53683
 B119 B -0.02145 0.98124 0.55563
 B120 B 0.03717 0.97275 0.53315
 B121 B 0.77536 0.22380 0.19812
 B122 B 0.76749 0.19484 0.25585
 B123 B 0.81177 0.23923 0.25249
 B124 B 0.78973 0.28303 0.21099
 B125 B 0.73366 0.26732 0.19433
 B126 B 0.72032 0.21209 0.22229
 B127 B 0.73097 0.27880 0.29692
 B128 B 0.73957 0.30825 0.23961
 B129 B 0.69524 0.26297 0.24443
 B130 B 0.71734 0.21928 0.28458
 B131 B 0.77262 0.23528 0.30132
 B132 B 0.78681 0.29026 0.27305
 B133 B 0.72983 0.76973 0.69650
 B134 B 0.73304 0.80252 0.75223
 B135 B 0.69345 0.75518 0.75045
 B136 B 0.72021 0.71054 0.71350
 B137 B 0.77483 0.73003 0.69704
 B138 B 0.78366 0.78713 0.72038
 B139 B 0.77547 0.72528 0.80028
 B140 B 0.77212 0.69222 0.74458
 B141 B 0.81140 0.74013 0.74739
 B142 B 0.78468 0.78455 0.78351
 B143 B 0.73046 0.76498 0.79969
 B144 B 0.72145 0.70779 0.77646
 B145 B 0.27926 0.26806 0.80684
 B146 B 0.27179 0.30105 0.75109
 B147 B 0.31335 0.25347 0.75030
 B148 B 0.28888 0.20884 0.78972
 B149 B 0.23363 0.22748 0.80911
 B150 B 0.22443 0.28545 0.78513
 B151 B 0.22962 0.22268 0.70599
 B152 B 0.23663 0.18978 0.76085
 B153 B 0.19554 0.23783 0.76065
 B154 B 0.21983 0.28199 0.72231
 B155 B 0.27450 0.26316 0.70299
 B156 B 0.28469 0.20597 0.72727
 B157 B 0.22538 0.72628 0.29646
 B158 B 0.23127 0.69540 0.24040
 B159 B 0.18925 0.74276 0.24207
 B160 B 0.21441 0.78615 0.28145
 B161 B 0.26917 0.76691 0.29803
 B162 B 0.28006 0.71077 0.27199
 B163 B 0.27077 0.77494 0.19439
 B164 B 0.26619 0.80639 0.25131
 B165 B 0.30708 0.75952 0.24783
 B166 B 0.28193 0.71555 0.20935
 B167 B 0.22628 0.73418 0.19304
 B168 B 0.21684 0.79105 0.21911
 B169 B 0.27481 0.72141 0.69596
 B170 B 0.26958 0.69269 0.75391
 B171 B 0.31210 0.73880 0.74755
 B172 B 0.28720 0.78168 0.70828
 B173 B 0.23196 0.76320 0.69360
 B174 B 0.22070 0.70814 0.72211
 B175 B 0.23194 0.77520 0.79651
 B176 B 0.23667 0.80434 0.73838
 B177 B 0.19528 0.75879 0.74484
 B178 B 0.21985 0.71570 0.78462
 B179 B 0.27577 0.73394 0.79901
 B180 B 0.28624 0.78902 0.77151
 B181 B 0.22873 0.28076 0.20583
 B182 B 0.23453 0.31103 0.26248
 B183 B 0.19111 0.26541 0.25936
 B184 B 0.21591 0.22121 0.21997
 B185 B 0.27153 0.23824 0.20420
 B186 B 0.28317 0.29411 0.23081
 B187 B 0.27173 0.22958 0.30779
 B188 B 0.26653 0.19802 0.25055
 B189 B 0.30905 0.24431 0.25459
 B190 B 0.28440 0.28869 0.29333
 B191 B 0.22817 0.27207 0.30901
 B192 B 0.21710 0.21604 0.28212
 B193 B 0.77219 0.77803 0.29787
 B194 B 0.76575 0.80985 0.24268
 B195 B 0.80747 0.76188 0.24338
 B196 B 0.78199 0.71835 0.28249
 B197 B 0.72747 0.73793 0.30005
 B198 B 0.71690 0.79422 0.27605
 B199 B 0.72494 0.73137 0.19659
 B200 B 0.72950 0.69930 0.25318
 B201 B 0.68938 0.74659 0.25098
 B202 B 0.71451 0.79074 0.21276
 B203 B 0.76996 0.77166 0.19512
 B204 B 0.77885 0.71429 0.22024
 B205 B 0.72707 0.22228 0.79695
 B206 B 0.73328 0.19108 0.74157
 B207 B 0.69150 0.23954 0.74298
 B208 B 0.71694 0.28225 0.78248
 B209 B 0.77147 0.26234 0.79932
 B210 B 0.78241 0.20652 0.77259
 B211 B 0.77319 0.27091 0.69546
 B212 B 0.76899 0.30178 0.75339
 B213 B 0.80978 0.25533 0.74916
 B214 B 0.78428 0.21139 0.71038
 B215 B 0.72875 0.23012 0.69429
 B216 B 0.72024 0.28780 0.71997
 C217 C 0.40028 1.00944 0.30268
 C218 C 0.37204 0.99459 0.34973
 C219 C 0.39642 0.99586 0.39261
 C220 C 0.44789 1.01852 0.39092
 C221 C 0.47357 0.98657 0.35002
 C222 C 0.44824 0.97995 0.30644
 C223 C 0.41845 1.06193 0.31658
 C224 C 0.44220 1.06616 0.36193
 H225 H 0.33618 0.97901 0.35024
 H226 H 0.37886 0.97967 0.42520
 H227 H 0.50989 0.97164 0.35315
 H228 H 0.46303 0.95699 0.27705
 H229 H 0.42073 1.09231 0.29119
 H230 H 0.46000 1.09939 0.37334
 C231 C -0.09342 0.50326 0.80111
 C232 C -0.12234 0.49274 0.84914
 C233 C -0.09828 0.49627 0.89197
 C234 C -0.04606 0.51642 0.88851
 C235 C -0.02228 0.47963 0.84991
 C236 C -0.04748 0.47174 0.80652
 C237 C -0.07192 0.55536 0.81032
 C238 C -0.04940 0.56216 0.85594
 H239 H -0.16047 0.48328 0.85011
 H240 H -0.11625 0.48295 0.92572
 H241 H 0.01430 0.46543 0.85217
 H242 H -0.03198 0.44936 0.77714
 H243 H -0.07250 0.58434 0.78261
 H244 H -0.03210 0.59604 0.86599
 C245 C 0.08861 -0.01291 0.79772
 C246 C 0.09122 0.03057 0.83183
 C247 C 0.06855 0.02841 0.87544
 C248 C 0.04009 -0.01867 0.88732
 C249 C 0.00597 -0.01911 0.83985
 C250 C 0.03108 -0.01666 0.79332
 C251 C 0.09218 -0.06010 0.83073
 C252 C 0.07216 -0.06117 0.87702
 H253 H 0.09518 0.06684 0.81727
 H254 H 0.05948 0.06397 0.89032
 H255 H -0.03280 -0.02515 0.84216
 H256 H 0.01148 -0.02329 0.75861
 H257 H 0.09079 -0.09561 0.81296
 H258 H 0.06678 -0.09551 0.89643
 C259 C 0.60461 0.48571 0.29968
 C260 C 0.55568 0.51343 0.30313
 C261 C 0.52874 0.50466 0.34504
 C262 C 0.55300 0.47272 0.38658
 C263 C 0.56261 0.42579 0.35724
 C264 C 0.58786 0.43201 0.31226
 C265 C 0.63085 0.49856 0.34838
 C266 C 0.60394 0.49580 0.39045
 H267 H 0.54060 0.53632 0.27405
 H268 H 0.49160 0.51764 0.34584
 H269 H 0.54678 0.39133 0.36797
 H270 H 0.58932 0.40143 0.28717
 H271 H 0.66470 0.51816 0.34975
 H272 H 0.61242 0.52426 0.41615
 C273 C 0.59950 0.50743 0.19976
 C274 C 0.62533 0.49401 0.15071
 C275 C 0.60055 0.49900 0.10872
 C276 C 0.54893 0.52051 0.11280
 C277 C 0.52545 0.48550 0.15331
 C278 C 0.55223 0.47743 0.19637
 C279 C 0.57759 0.55977 0.18967
 C280 C 0.55405 0.56657 0.14437
 H281 H 0.66114 0.48057 0.14621
 H282 H 0.61781 0.48491 0.07486
 H283 H 0.48949 0.47009 0.15065
 H284 H 0.53879 0.45390 0.22604
 H285 H 0.57782 0.58870 0.21745
 H286 H 0.53612 0.60045 0.13471
 C287 C 0.09453 1.01110 0.70094
 C288 C 0.04790 1.04637 0.70779
 C289 C 0.02055 1.05524 0.66420
 C290 C 0.04009 1.02837 0.61770
 C291 C 0.09079 1.04799 0.61724
 C292 C 0.12032 1.03406 0.65508
 C293 C 0.07015 0.96681 0.68084
 C294 C 0.04119 0.97562 0.64129
 H295 H 0.03643 1.06221 0.74347
 H296 H -0.01183 1.07774 0.66388
 H297 H 0.10054 1.07857 0.59362
 H298 H 0.15638 1.04832 0.65501
 H299 H 0.06646 0.93373 0.70292
 H300 H 0.01059 0.95145 0.63909
 C301 C -0.09206 0.48483 0.70251
 C302 C -0.12157 0.49674 0.65552
 C303 C -0.09805 0.49519 0.61238
 C304 C -0.04610 0.47627 0.61308
 C305 C -0.02144 0.51008 0.65311
 C306 C -0.04568 0.51564 0.69770
 C307 C -0.06973 0.43315 0.69008
 C308 C -0.04863 0.42846 0.64270
 H309 H -0.15845 0.51008 0.65546
 H310 H -0.11083 0.52226 0.58713
 H311 H 0.01512 0.52404 0.65017
 H312 H -0.02866 0.53506 0.72820
 H313 H -0.06913 0.40332 0.71683
 H314 H -0.03112 0.39526 0.63012
 C315 C 0.40525 -0.00678 0.20333
 C316 C 0.38071 0.01168 0.15598
 C317 C 0.40577 0.00877 0.11421
 C318 C 0.45488 -0.01918 0.11581
 C319 C 0.48163 0.01091 0.15792
 C320 C 0.45519 0.01929 0.20151
 C321 C 0.42210 -0.06009 0.19002
 C322 C 0.44519 -0.06630 0.14438
 H323 H 0.34534 0.02709 0.15272
 H324 H 0.38908 0.02679 0.08215
 H325 H 0.51851 0.02400 0.15486
 H326 H 0.47001 0.04082 0.23196
 H327 H 0.41965 -0.09034 0.21605
 H328 H 0.46013 -0.10101 0.13265
 C329 C 0.30144 0.41918 0.00750
 C330 C 0.34694 0.39088 -0.00793
 C331 C 0.38758 0.41477 -0.00985
 C332 C 0.38653 0.46619 0.00946
 C333 C 0.34766 0.49057 -0.02407
 C334 C 0.30399 0.46649 -0.02534
 C335 C 0.31629 0.43962 0.06039
 C336 C 0.36043 0.46314 0.06142
 H337 H 0.35164 0.35296 -0.01202
 H338 H 0.41880 0.39535 -0.02452
 H339 H 0.35349 0.52426 -0.04441
 H340 H 0.27398 0.48051 -0.04743
 H341 H 0.29340 0.43843 0.09373
 H342 H 0.37405 0.48046 0.09537
 C343 C -0.20352 0.92236 0.50807
 C344 C -0.15861 0.89116 0.51299
 C345 C -0.11709 0.91244 0.50241
 C346 C -0.11692 0.96708 0.50742
 C347 C -0.15138 0.98357 0.46532
 C348 C -0.19383 0.95793 0.46268
 C349 C -0.19482 0.95847 0.55310
 C350 C -0.14885 0.97894 0.55447
 H351 H -0.15779 0.85485 0.52773
 H352 H -0.08751 0.89051 0.48809
 H353 H -0.14490 1.01523 0.44182
 H354 H -0.22067 0.96923 0.43543
 H355 H -0.22373 0.97567 0.57459
 H356 H -0.14043 1.00843 0.58010
 C357 C -0.20300 0.08062 0.99091
 C358 C -0.15846 0.11037 1.00548
 C359 C -0.11676 0.08794 1.00566
 C360 C -0.11627 0.03596 0.98928
 C361 C -0.15420 0.01103 1.02307
 C362 C -0.19865 0.03351 1.02378
 C363 C -0.18758 0.05988 0.93806
 C364 C -0.14224 0.03764 0.93711
 H365 H -0.15647 0.14806 1.01339
 H366 H -0.08884 0.10491 1.02675
 H367 H -0.14736 -0.02249 1.04350
 H368 H -0.22814 0.01863 1.04601
 H369 H -0.21074 0.06062 0.90494
 H370 H -0.12772 0.02044 0.90334
 C371 C 0.29684 0.57908 0.48768
 C372 C 0.34148 0.60738 0.50486
 C373 C 0.38278 0.58387 0.50596
 C374 C 0.38293 0.53306 0.48456
 C375 C 0.34407 0.50700 0.51643
 C376 C 0.29984 0.53031 0.51792
 C377 C 0.31282 0.56127 0.43402
 C378 C 0.35749 0.53805 0.43242
 H379 H 0.34392 0.64499 0.51345
 H380 H 0.41329 0.60247 0.52273
 H381 H 0.35015 0.47241 0.53507
 H382 H 0.26962 0.51468 0.53833
 H383 H 0.29037 0.56415 0.40053
 H384 H 0.37210 0.52251 0.39783
 C385 C 0.19872 0.58056 0.50348
 C386 C 0.15441 0.61067 0.48760
 C387 C 0.11262 0.58823 0.48668
 C388 C 0.11201 0.53684 0.50669
 C389 C 0.15009 0.51047 0.47377
 C390 C 0.19460 0.53274 0.47200
 C391 C 0.18297 0.56195 0.55693
 C392 C 0.13805 0.53995 0.55855
 H393 H 0.15323 0.64847 0.47868
 H394 H 0.08169 0.60824 0.47224
 H395 H 0.14314 0.47662 0.45425
 H396 H 0.22417 0.51721 0.45025
 H397 H 0.20557 0.56329 0.59032
 H398 H 0.12362 0.52402 0.59299
 C399 C 0.69901 0.08289 0.00811
 C400 C 0.65449 0.11008 -0.01248
 C401 C 0.61473 0.08470 -0.01754
 C402 C 0.61421 0.03697 0.01162
 C403 C 0.65570 0.00736 -0.01200
 C404 C 0.69813 0.03210 -0.01781
 C405 C 0.68111 0.06951 0.06267
 C406 C 0.63649 0.04712 0.06438
 H407 H 0.65204 0.14807 -0.02132
 H408 H 0.58403 0.10207 -0.03579
 H409 H 0.65497 -0.03179 -0.01588
 H410 H 0.72937 0.01387 -0.03378
 H411 H 0.70219 0.07362 0.09686
 H412 H 0.62085 0.03391 0.09952
 C413 C 0.69699 0.91510 0.49580
 C414 C 0.66183 0.89713 0.45281
 C415 C 0.61871 0.92115 0.44826
 C416 C 0.60748 0.95574 0.49156
 C417 C 0.61890 0.92558 0.53840
 C418 C 0.66490 0.91232 0.54380
 C419 C 0.69575 0.97145 0.48897
 C420 C 0.64991 0.99216 0.48709
 H421 H 0.66782 0.86651 0.42826
 H422 H 0.59396 0.91416 0.41727
 H423 H 0.59288 0.91315 0.56575
 H424 H 0.67539 0.90384 0.58184
 H425 H 0.72662 0.99493 0.49306
 H426 H 0.64444 1.03115 0.48586
 C427 C 0.20334 0.41551 0.99007
 C428 C 0.15870 0.38653 1.00674
 C429 C 0.11662 0.40948 1.00531
 C430 C 0.11662 0.46091 0.98559
 C431 C 0.15507 0.48731 1.01703
 C432 C 0.19921 0.46461 1.01910
 C433 C 0.18742 0.43205 0.93572
 C434 C 0.14242 0.45523 0.93354
 H435 H 0.15806 0.35092 1.02274
 H436 H 0.08824 0.39459 1.02789
 H437 H 0.14882 0.52220 1.03494
 H438 H 0.22876 0.48099 1.03969
 H439 H 0.20952 0.42806 0.90207
 H440 H 0.12775 0.46979 0.89855
 C441 C -0.00704 0.30174 0.41897
 C442 C 0.04159 0.32375 0.43668
 C443 C 0.03838 0.36515 0.46445
 C444 C -0.01333 0.38504 0.47473
 C445 C -0.03810 0.38473 0.42197
 C446 C -0.03301 0.34470 0.39370
 C447 C -0.03523 0.29815 0.47086
 C448 C -0.03686 0.34013 0.49987
 H449 H 0.07633 0.30602 0.43396
 H450 H 0.07043 0.37918 0.48301
 H451 H -0.06317 0.41200 0.40843
 H452 H -0.05157 0.34419 0.35809
 H453 H -0.05118 0.26507 0.48516
 H454 H -0.05016 0.33916 0.53849
 C455 C 0.50102 -0.20017 -0.08900
 C456 C 0.54721 -0.16741 -0.09143
 C457 C 0.54800 -0.12776 -0.06081
 C458 C 0.49975 -0.11562 -0.03280
 C459 C 0.46436 -0.12001 -0.07886
 C460 C 0.46053 -0.16403 -0.10030
 C461 C 0.49355 -0.20455 -0.02953
 C462 C 0.49205 -0.16199 -0.00204
 H463 H 0.57436 -0.16733 -0.12066
 H464 H 0.57971 -0.10489 -0.06216
 H465 H 0.44067 -0.09160 -0.09276
 H466 H 0.42397 -0.17423 -0.10991
 H467 H 0.49256 -0.23725 -0.00759
 H468 H 0.48874 -0.16176 0.03895
 C469 C -0.00110 -0.20104 1.07804
 C470 C -0.04984 -0.18221 1.05563
 C471 C -0.04699 -0.13925 1.02905
 C472 C 0.00419 -0.11567 1.02672
 C473 C 0.01905 -0.11667 1.08408
 C474 C 0.01670 -0.15832 1.10834
 C475 C 0.03182 -0.20046 1.02917
 C476 C 0.03462 -0.15681 1.00362
 H477 H -0.08393 -0.20117 1.05915
 H478 H -0.07853 -0.12404 1.01024
 H479 H 0.03334 -0.08752 1.10690
 H480 H 0.02526 -0.15893 1.14821
 H481 H 0.04997 -0.23174 1.01358
 H482 H 0.05494 -0.15284 0.96865
 C483 C 0.49987 0.29656 0.57905
 C484 C 0.45065 0.31561 0.55872
 C485 C 0.45312 0.35788 0.53104
 C486 C 0.50486 0.37985 0.52405
 C487 C 0.52559 0.38016 0.57908
 C488 C 0.51880 0.34069 0.60706
 C489 C 0.53039 0.29469 0.52852
 C490 C 0.53149 0.33660 0.50024
 H491 H 0.41645 0.29727 0.56432
 H492 H 0.42099 0.37270 0.51299
 H493 H 0.54485 0.40901 0.59743
 H494 H 0.52732 0.34138 0.64715
 H495 H 0.54284 0.26215 0.51034
 H496 H 0.54227 0.33512 0.46078
 C497 C 0.49941 1.20018 0.57795
 C498 C 0.54656 1.18241 0.55058
 C499 C 0.54252 1.13921 0.52448
 C500 C 0.49192 1.11473 0.52719
 C501 C 0.48221 1.11559 0.58563
 C502 C 0.48568 1.15710 0.60968
 C503 C 0.46274 1.19895 0.53232
 C504 C 0.45849 1.15512 0.50735
 H505 H 0.58067 1.20178 0.55198
 H506 H 0.57288 1.12393 0.50360
 H507 H 0.47269 1.08657 0.61041
 H508 H 0.48291 1.15685 0.65030
 H509 H 0.44279 1.23018 0.51891
 H510 H 0.43541 1.15071 0.47449
 C511 C -0.00252 0.70281 1.07767
 C512 C 0.04655 0.68540 1.05418
 C513 C 0.04494 0.64250 1.02766
 C514 C -0.00518 0.61738 1.02618
 C515 C -0.01942 0.61779 1.08381
 C516 C -0.01912 0.65966 1.10803
 C517 C -0.03610 0.70140 1.02961
 C518 C -0.03770 0.65760 1.00397
 H519 H 0.08027 0.70498 1.05776
 H520 H 0.07689 0.62804 1.00882
 H521 H -0.02688 0.58757 1.10861
 H522 H -0.02590 0.65977 1.14826
 H523 H -0.05613 0.73224 1.01538
 H524 H -0.05868 0.65294 0.96965
 C525 C 0.50293 0.70201 -0.08633
 C526 C 0.54642 0.69711 -0.04781
 C527 C 0.54822 0.65518 -0.01918
 C528 C 0.50856 0.61827 -0.03075
 C529 C 0.46234 0.64930 -0.02154
 C530 C 0.45979 0.69217 -0.04879
 C531 C 0.50422 0.65622 -0.11646
 C532 C 0.51046 0.61563 -0.09047
 H533 H 0.56620 0.72765 -0.03313
 H534 H 0.57129 0.65227 0.01388
 H535 H 0.43498 0.63973 0.00626
 H536 H 0.43005 0.71757 -0.04304
 H537 H 0.49065 0.65324 -0.15456
 H538 H 0.51564 0.58449 -0.11458
 C539 C -0.00044 1.20317 0.41890
 C540 C -0.04972 1.17916 0.43317
 C541 C -0.04706 1.13784 0.46128
 C542 C 0.00441 1.12009 0.47512
 C543 C 0.03202 1.12103 0.42343
 C544 C 0.02754 1.16096 0.39497
 C545 C 0.02399 1.20739 0.47251
 C546 C 0.02379 1.16588 0.50195
 H547 H -0.08523 1.19394 0.42751
 H548 H -0.07982 1.12228 0.47714
 H549 H 0.05686 1.09341 0.40979
 H550 H 0.04529 1.16142 0.35861
 H551 H 0.03958 1.24033 0.48727
 H552 H 0.03643 1.16593 0.54089
 C553 C 0.76057 0.65588 0.94996
 C554 C 0.81344 0.67504 0.93886
 C555 C 0.82023 0.69664 0.89237
 C556 C 0.77371 0.70189 0.86121
 C557 C 0.75102 0.65053 0.85979
 C558 C 0.74762 0.62719 0.90291
 C559 C 0.73147 0.70375 0.94452
 C560 C 0.74062 0.72845 0.90068
 H561 H 0.84260 0.67431 0.96628
 H562 H 0.85442 0.71279 0.88124
 H563 H 0.73708 0.63177 0.82695
 H564 H 0.73689 0.58948 0.90244
 H565 H 0.71249 0.72181 0.97500
 H566 H 0.73427 0.76725 0.90009
 C567 C 0.25376 0.15653 0.45727
 C568 C 0.30767 0.17077 0.44300
 C569 C 0.31493 0.19230 0.39667
 C570 C 0.26836 0.20652 0.36964
 C571 C 0.23725 0.16085 0.36860
 C572 C 0.23288 0.13495 0.40973
 C573 C 0.23025 0.20832 0.45624
 C574 C 0.24052 0.23502 0.41286
 H575 H 0.33765 0.16834 0.46928
 H576 H 0.35020 0.20544 0.38486
 H577 H 0.20751 0.15388 0.34301
 H578 H 0.20275 0.11131 0.40746
 H579 H 0.20788 0.22336 0.48622
 H580 H 0.22885 0.27253 0.40977
 C581 C 0.74172 0.34913 0.44662
 C582 C 0.70863 0.37421 0.40533
 C583 C 0.69765 0.34710 0.36435
 C584 C 0.73103 0.30436 0.35655
 C585 C 0.78339 0.32326 0.37249
 C586 C 0.78862 0.34083 0.41898
 C587 C 0.72290 0.29511 0.44852
 C588 C 0.71752 0.27265 0.40223
 H589 H 0.69338 0.41021 0.40758
 H590 H 0.66836 0.35649 0.33871
 H591 H 0.81543 0.32752 0.34960
 H592 H 0.82460 0.34709 0.43330
 H593 H 0.72217 0.27223 0.48153
 H594 H 0.70872 0.23448 0.39903
 C595 C 0.24042 0.85202 0.94357
 C596 C 0.26858 0.80334 0.94118
 C597 C 0.26368 0.77798 0.89733
 C598 C 0.23158 0.80247 0.85567
 C599 C 0.18383 0.80954 0.88436
 C600 C 0.18786 0.83457 0.92912
 C601 C 0.25718 0.87848 0.89575
 C602 C 0.25339 0.85385 0.85250
 H603 H 0.28946 0.78801 0.97198
 H604 H 0.27863 0.74160 0.89537
 H605 H 0.15029 0.79237 0.87293
 H606 H 0.15674 0.83458 0.95365
 H607 H 0.27386 0.91361 0.89454
 H608 H 0.26928 0.86967 0.81933
 C609 C 0.25616 0.84951 0.04554
 C610 C 0.23009 0.79984 0.04777
 C611 C 0.23743 0.77391 0.09167
 C612 C 0.26802 0.80009 0.13378
 C613 C 0.31496 0.80875 0.10518
 C614 C 0.30953 0.83321 0.06044
 C615 C 0.23700 0.87412 0.09338
 C616 C 0.24264 0.85036 0.13627
 H617 H 0.20851 0.78506 0.01733
 H618 H 0.22375 0.73724 0.09462
 H619 H 0.34929 0.79273 0.11659
 H620 H 0.34077 0.83338 0.03634
 H621 H 0.21907 0.90850 0.09593
 H622 H 0.22751 0.86760 0.16966
 C623 C 0.75548 0.34496 0.54743
 C624 C 0.71157 0.31406 0.56306
 C625 C 0.71992 0.28556 0.60413
 C626 C 0.76780 0.29592 0.63465
 C627 C 0.80538 0.28329 0.59377
 C628 C 0.79645 0.30513 0.54761
 C629 C 0.76628 0.37543 0.59401
 C630 C 0.76505 0.35127 0.63741
 H631 H 0.67966 0.30817 0.54042
 H632 H 0.69830 0.25310 0.60741
 H633 H 0.83029 0.25292 0.59750
 H634 H 0.81233 0.29032 0.51322
 H635 H 0.76411 0.41449 0.59505
 H636 H 0.74943 0.37067 0.66917
 C637 C 0.23308 0.14806 0.55798
 C638 C 0.18022 0.16460 0.57624
 C639 C 0.17763 0.18865 0.62177
 C640 C 0.22638 0.19684 0.64663
 C641 C 0.25060 0.14607 0.64657
 C642 C 0.24890 0.11991 0.60442
 C643 C 0.26133 0.19667 0.56095
 C644 C 0.25513 0.22268 0.60395
 H645 H 0.14567 0.15862 0.55922
 H646 H 0.14367 0.20175 0.63763
 H647 H 0.28301 0.13788 0.66719
 H648 H 0.26786 0.08553 0.60382
 H649 H 0.28607 0.21004 0.53247
 H650 H 0.27066 0.25860 0.60639
 C651 C 0.74155 0.65730 0.04837
 C652 C 0.77126 0.70449 0.05277
 C653 C 0.76246 0.73059 0.09583
 C654 C 0.72785 0.70620 0.13579
 C655 C 0.68180 0.70113 0.10391
 C656 C 0.68890 0.67801 0.05823
 C657 C 0.75374 0.62962 0.09649
 C658 C 0.74973 0.65419 0.13897
 H659 H 0.79393 0.71934 0.02325
 H660 H 0.77650 0.76714 0.09844
 H661 H 0.64763 0.71827 0.11400
 H662 H 0.66013 0.67702 0.03039
 H663 H 0.76524 0.59204 0.09799
 H664 H 0.76394 0.63644 0.17240
 C665 C 0.16827 0.55185 0.24387
 C666 C 0.13885 0.59652 0.25967
 C667 C 0.16167 0.63803 0.25945
 C668 C 0.21296 0.63774 0.23892
 C669 C 0.23909 0.59985 0.27228
 C670 C 0.21604 0.55587 0.27535
 C671 C 0.18710 0.56665 0.19008
 C672 C 0.20945 0.61122 0.18760
 H673 H 0.10135 0.59842 0.26942
 H674 H 0.14225 0.66912 0.27444
 H675 H 0.27304 0.60666 0.29162
 H676 H 0.23092 0.52676 0.29821
 H677 H 0.18607 0.54355 0.15706
 H678 H 0.22571 0.62487 0.15297
 C679 C 0.67099 0.04547 0.74142
 C680 C 0.70761 0.05357 0.69659
 C681 C 0.72799 0.09954 0.69437
 C682 C 0.71575 0.13204 0.74071
 C683 C 0.66100 0.13167 0.74593
 C684 C 0.63970 0.09006 0.73568
 C685 C 0.70598 0.05590 0.78703
 C686 C 0.73181 0.09818 0.78357
 H687 H 0.72456 0.02426 0.67546
 H688 H 0.75757 0.10773 0.66863
 H689 H 0.63915 0.16078 0.76136
 H690 H 0.60342 0.09033 0.72070
 H691 H 0.71640 0.02985 0.81551
 H692 H 0.76311 0.10487 0.80727
 C693 C 0.83130 0.04972 0.26036
 C694 C 0.78265 0.05294 0.22958
 C695 C 0.75894 0.09700 0.23097
 C696 C 0.78473 0.13615 0.26216
 C697 C 0.79065 0.11166 0.31484
 C698 C 0.81370 0.06666 0.31388
 C699 C 0.85916 0.09408 0.24263
 C700 C 0.83506 0.13519 0.24098
 H701 H 0.76820 0.02342 0.20728
 H702 H 0.72503 0.10330 0.21120
 H703 H 0.77566 0.12700 0.34936
 H704 H 0.81723 0.04484 0.34785
 H705 H 0.89543 0.09565 0.22926
 H706 H 0.85043 0.16340 0.21770
 C707 C 0.33091 0.54631 0.75819
 C708 C 0.31235 0.56290 0.81167
 C709 C 0.29049 0.60850 0.81281
 C710 C 0.28709 0.63399 0.76044
 C711 C 0.33860 0.63270 0.74195
 C712 C 0.36045 0.59044 0.74133
 C713 C 0.28281 0.55047 0.72762
 C714 C 0.26082 0.59541 0.72834
 H715 H 0.31400 0.54032 0.84525
 H716 H 0.27474 0.62359 0.84708
 H717 H 0.35541 0.66058 0.72028
 H718 H 0.39747 0.59139 0.73006
 H719 H 0.26654 0.52026 0.70784
 H720 H 0.22644 0.60209 0.70963
 C721 C 0.33208 0.44695 0.74417
 C722 C 0.31305 0.42918 0.69185
 C723 C 0.29151 0.38384 0.69268
 C724 C 0.28922 0.35950 0.74587
 C725 C 0.34069 0.36124 0.76489
 C726 C 0.36287 0.40315 0.76098
 C727 C 0.28447 0.44360 0.77623
 C728 C 0.26290 0.39871 0.77734
 H729 H 0.31391 0.45078 0.65757
 H730 H 0.27537 0.36797 0.65916
 H731 H 0.36082 0.33078 0.78041
 H732 H 0.40103 0.40249 0.76798
 H733 H 0.26845 0.47407 0.79611
 H734 H 0.22919 0.39234 0.79748
 C735 C 0.83282 0.95159 0.24442
 C736 C 0.85900 0.90666 0.26538
 C737 C 0.83341 0.86678 0.26886
 C738 C 0.78541 0.86727 0.24014
 C739 C 0.75665 0.90905 0.26467
 C740 C 0.78224 0.95100 0.27100
 C741 C 0.81884 0.93425 0.18983
 C742 C 0.79578 0.89009 0.18778
 H743 H 0.89667 0.90332 0.27459
 H744 H 0.85072 0.83546 0.28598
 H745 H 0.71758 0.90885 0.26937
 H746 H 0.76513 0.98203 0.28869
 H747 H 0.82276 0.95563 0.15575
 H748 H 0.78212 0.87523 0.15258
 C749 C 0.66559 0.94695 0.75387
 C750 C 0.72164 0.94707 0.76298
 C751 C 0.74352 0.90189 0.76484
 C752 C 0.70872 0.85868 0.75796
 C753 C 0.67102 0.86781 0.79920
 C754 C 0.64676 0.91070 0.79528
 C755 C 0.66563 0.91595 0.70507
 C756 C 0.68001 0.87018 0.71028
 H757 H 0.74476 0.97821 0.75910
 H758 H 0.78259 0.89754 0.76675
 H759 H 0.66435 0.84408 0.83061
 H760 H 0.61678 0.91663 0.82072
 H761 H 0.65677 0.92669 0.66722
 H762 H 0.66800 0.84408 0.68299
 C763 C 0.16993 0.45476 0.26079
 C764 C 0.21976 0.45210 0.23211
 C765 C 0.24366 0.40816 0.23487
 C766 C 0.21687 0.36920 0.26584
 C767 C 0.20873 0.39402 0.31779
 C768 C 0.18550 0.43863 0.31524
 C769 C 0.14326 0.41015 0.24236
 C770 C 0.16764 0.36927 0.24243
 H771 H 0.23525 0.48194 0.21099
 H772 H 0.27855 0.40200 0.21685
 H773 H 0.22277 0.37940 0.35304
 H774 H 0.18115 0.46076 0.34878
 H775 H 0.10715 0.40799 0.22855
 H776 H 0.15184 0.33943 0.22194
 C777 C 0.04958 0.24442 0.83789
 C778 C 0.09300 0.27000 0.86240
 C779 C 0.13289 0.27270 0.83390
 C780 C 0.13597 0.23965 0.78670
 C781 C 0.11518 0.19140 0.80812
 C782 C 0.06994 0.19307 0.82901
 C783 C 0.05012 0.26415 0.78147
 C784 C 0.09383 0.26051 0.75563
 H785 H 0.09360 0.28859 0.89811
 H786 H 0.15346 0.30533 0.83948
 H787 H 0.13663 0.16051 0.81793
 H788 H 0.05303 0.15997 0.84181
 H789 H 0.01893 0.27650 0.76067
 H790 H 0.09764 0.27099 0.71618
 C791 C 0.54668 0.75082 0.33272
 C792 C 0.56427 0.80046 0.31105
 C793 C 0.60656 0.79882 0.28304
 C794 C 0.63154 0.74834 0.27948
 C795 C 0.63219 0.73354 0.33703
 C796 C 0.59034 0.73342 0.36208
 C797 C 0.54799 0.71856 0.28354
 C798 C 0.59132 0.71684 0.25741
 H799 H 0.54537 0.83452 0.31562
 H800 H 0.62089 0.83106 0.26492
 H801 H 0.66269 0.72359 0.36005
 H802 H 0.58957 0.71995 0.40055
 H803 H 0.51754 0.69891 0.26884
 H804 H 0.59565 0.69634 0.22263
 C805 C 0.54991 0.25325 0.17005
 C806 C 0.56891 0.20505 0.19344
 C807 C 0.61210 0.20848 0.21933
 C808 C 0.63604 0.25972 0.21969
 C809 C 0.63483 0.27287 0.16204
 C810 C 0.59267 0.27014 0.13842
 C811 C 0.55124 0.28722 0.21797
 C812 C 0.59527 0.29083 0.24243
 H813 H 0.55013 0.17080 0.19065
 H814 H 0.62737 0.17722 0.23867
 H815 H 0.66469 0.28508 0.13871
 H816 H 0.59148 0.27753 0.09823
 H817 H 0.52016 0.30564 0.23367
 H818 H 0.59972 0.31172 0.27688
 C819 C 0.05131 0.75331 0.67026
 C820 C 0.06952 0.70502 0.69358
 C821 C 0.11239 0.70802 0.71960
 C822 C 0.13644 0.75911 0.72081
 C823 C 0.13550 0.77500 0.66381
 C824 C 0.09444 0.76921 0.63885
 C825 C 0.05231 0.78751 0.71815
 C826 C 0.09583 0.79022 0.74360
 H827 H 0.05077 0.67079 0.69008
 H828 H 0.12718 0.67655 0.73899
 H829 H 0.16484 0.78791 0.64066
 H830 H 0.09353 0.77529 0.59824
 H831 H 0.02129 0.80547 0.73426
 H832 H 0.09880 0.80913 0.77935
 C833 C 0.95557 0.75137 0.67321
 C834 C 0.95468 0.71544 0.71970
 C835 C 0.91076 0.71089 0.74453
 C836 C 0.87034 0.74363 0.72383
 C837 C 0.89430 0.79458 0.72575
 C838 C 0.93753 0.79869 0.69974
 C839 C 0.91273 0.73683 0.64176
 C840 C 0.87138 0.73295 0.66580
 H841 H 0.98601 0.69662 0.73429
 H842 H 0.90645 0.68849 0.77803
 H843 H 0.87851 0.82520 0.74574
 H844 H 0.95592 0.83325 0.69696
 H845 H 0.91255 0.73351 0.60118
 H846 H 0.84270 0.72215 0.64131
 C847 C 0.45297 0.25125 0.17298
 C848 C 0.40917 0.23503 0.14350
 C849 C 0.36763 0.23416 0.16870
 C850 C 0.36821 0.24681 0.22690
 C851 C 0.40956 0.21483 0.24765
 C852 C 0.45270 0.21720 0.22080
 C853 C 0.43551 0.29985 0.19749
 C854 C 0.39307 0.29735 0.22533
 H855 H 0.40881 0.22756 0.10346
 H856 H 0.33730 0.22267 0.14589
 H857 H 0.40604 0.19372 0.28218
 H858 H 0.48411 0.19780 0.23450
 H859 H 0.45445 0.33392 0.19312
 H860 H 0.37857 0.32898 0.24466
 C861 C 0.45011 0.75245 0.32985
 C862 C 0.45013 0.78704 0.28215
 C863 C 0.40710 0.79008 0.25507
 C864 C 0.36588 0.75800 0.27526
 C865 C 0.39074 0.70734 0.27683
 C866 C 0.43286 0.70431 0.30472
 C867 C 0.40595 0.76942 0.35871
 C868 C 0.36487 0.77129 0.33305
 H869 H 0.48141 0.80652 0.26874
 H870 H 0.40360 0.81189 0.22102
 H871 H 0.37662 0.67600 0.25706
 H872 H 0.45193 0.67005 0.30846
 H873 H 0.40381 0.77439 0.39883
 H874 H 0.33400 0.77901 0.35699
 C875 C 0.95252 0.25191 0.83400
 C876 C 0.94304 0.30023 0.80476
 C877 C 0.90298 0.30050 0.77347
 C878 C 0.86937 0.25589 0.77728
 C879 C 0.90550 0.21524 0.76227
 C880 C 0.94848 0.21414 0.78965
 C881 C 0.90624 0.24396 0.86285
 C882 C 0.86577 0.24912 0.83646
 H883 H 0.96888 0.32947 0.80263
 H884 H 0.90024 0.32740 0.74412
 H885 H 0.89923 0.19111 0.73056
 H886 H 0.97726 0.18871 0.78025
 H887 H 0.90381 0.23734 0.90306
 H888 H 0.83500 0.25530 0.86080
 C889 C 0.59395 0.99165 0.70184
 C890 C 0.54673 1.02212 0.69796
 C891 C 0.51982 1.01348 0.65489
 C892 C 0.54302 0.97762 0.61512
 C893 C 0.59469 0.99797 0.61063
 C894 C 0.61951 1.00352 0.65253
 C895 C 0.57167 0.93945 0.69308
 C896 C 0.54811 0.93207 0.64782
 H897 H 0.53090 1.04183 0.72936
 H898 H 0.48162 1.02257 0.65529
 H899 H 0.61309 1.00809 0.57627
 H900 H 0.65728 1.00610 0.64667
 H901 H 0.57280 0.91077 0.72124
 H902 H 0.53047 0.89812 0.63876
 C903 C 0.10143 0.49570 1.19941
 C904 C 0.08486 0.54204 1.17358
 C905 C 0.06344 0.53551 1.12872
 C906 C 0.05553 0.48135 1.10994
 C907 C 0.10590 0.45968 1.11421
 C908 C 0.13020 0.46963 1.15683
 C909 C 0.05195 0.46726 1.20185
 C910 C 0.02928 0.45938 1.15591
 H911 H 0.08714 0.57828 1.18818
 H912 H 0.05380 0.56837 1.10935
 H913 H 0.12031 0.43183 1.09125
 H914 H 0.16671 0.45658 1.15964
 H915 H 0.03542 0.45471 1.23666
 H916 H -0.00495 0.44045 1.15300
 C917 C -0.09903 0.00738 1.20146
 C918 C -0.12715 0.03277 1.15806
 C919 C -0.10229 0.04247 1.11586
 C920 C -0.05205 0.02069 1.11241
 C921 C -0.02634 0.04347 1.15814
 C922 C -0.04963 0.03605 1.20408
 C923 C -0.08152 -0.03921 1.17707
 C924 C -0.05955 -0.03321 1.13222
 H925 H -0.16351 0.04602 1.15971
 H926 H -0.11601 0.07112 1.09332
 H927 H 0.00793 0.06235 1.15515
 H928 H -0.03367 0.04887 1.23898
 H929 H -0.08381 -0.07502 1.19332
 H930 H -0.04873 -0.06604 1.11386
 C931 C 0.39886 0.50287 0.69739
 C932 C 0.44872 0.53077 0.69908
 C933 C 0.47143 0.53843 0.65275
 C934 C 0.44490 0.51674 0.60682
 C935 C 0.43701 0.46263 0.62633
 C936 C 0.41500 0.45633 0.67141
 C937 C 0.37050 0.52901 0.65463
 C938 C 0.39487 0.53909 0.61193
 H939 H 0.46530 0.54311 0.73392
 H940 H 0.50586 0.55698 0.64954
 H941 H 0.45136 0.43013 0.60937
 H942 H 0.41437 0.42048 0.68737
 H943 H 0.33496 0.54393 0.65749
 H944 H 0.38269 0.57062 0.59273
 C945 C 0.40051 0.49120 -0.19865
 C946 C 0.37469 0.46325 -0.15494
 C947 C 0.40134 0.45311 -0.11389
 C948 C 0.44896 0.47946 -0.10979
 C949 C 0.47628 0.45986 -0.15665
 C950 C 0.45178 0.46576 -0.20223
 C951 C 0.41450 0.53816 -0.17300
 C952 C 0.43571 0.53279 -0.12804
 H953 H 0.34080 0.44519 -0.15702
 H954 H 0.39481 0.41800 -0.09829
 H955 H 0.51181 0.44296 -0.15442
 H956 H 0.46793 0.45375 -0.23755
 H957 H 0.40866 0.57451 -0.18616
 H958 H 0.43736 0.56598 -0.10703
 C959 C -0.09819 0.99301 0.30298
 C960 C -0.12376 0.96581 0.34697
 C961 C -0.09526 0.95354 0.38632
 C962 C -0.04705 0.97905 0.38957
 C963 C -0.02177 0.95828 0.34238
 C964 C -0.04754 0.96541 0.29759
 C965 C -0.08218 1.03946 0.32779
 C966 C -0.05664 1.03310 0.37030
 H967 H -0.16030 0.95207 0.34599
 H968 H -0.10470 0.92287 0.40946
 H969 H 0.01323 0.94019 0.34355
 H970 H -0.03260 0.95292 0.26198
 H971 H -0.08278 1.07489 0.31059
 H972 H -0.03750 1.06489 0.38298
 C973 C 0.09780 0.50930 0.30119
 C974 C 0.08066 0.46272 0.32584
 C975 C 0.05476 0.46917 0.36855
 C976 C 0.04620 0.52331 0.38782
 C977 C 0.09559 0.54671 0.38509
 C978 C 0.12326 0.53535 0.34517
 C979 C 0.04767 0.53749 0.29579
 C980 C 0.02187 0.54502 0.34053
 H981 H 0.08150 0.42732 0.30864
 H982 H 0.03539 0.43764 0.38183
 H983 H 0.10225 0.58236 0.39903
 H984 H 0.15766 0.55250 0.34258
 H985 H 0.03299 0.54967 0.25992
 H986 H -0.01303 0.56331 0.34153
 C987 C 0.60034 0.01217 -0.19754
 C988 C 0.55380 -0.01840 -0.19137
 C989 C 0.52888 -0.01184 -0.14737
 C990 C 0.55241 0.02297 -0.10771
 C991 C 0.60474 0.00286 -0.10658
 C992 C 0.62981 0.00162 -0.15007
 C993 C 0.57902 0.06462 -0.18406
 C994 C 0.55662 0.06974 -0.13764
 H995 H 0.53783 -0.04024 -0.22055
 H996 H 0.49293 -0.02717 -0.14447
 H997 H 0.61473 -0.02673 -0.08270
 H998 H 0.66423 -0.01728 -0.15034
 H999 H 0.56994 0.09335 -0.20988
 H1000 H 0.53648 0.10225 -0.12746
 C1001 C 0.70013 0.58742 -0.00691
 C1002 C 0.66119 0.60967 -0.04417
 C1003 C 0.61953 0.58395 -0.04977
 C1004 C 0.61283 0.54254 -0.01226
 C1005 C 0.65721 0.50990 -0.02558
 C1006 C 0.70178 0.53346 -0.02498
 C1007 C 0.67122 0.58120 0.04270
 C1008 C 0.62581 0.56694 0.03729
 H1009 H 0.66487 0.64223 -0.06640
 H1010 H 0.59601 0.59084 -0.08135
 H1011 H 0.65342 0.47313 -0.03952
 H1012 H 0.73408 0.51600 -0.03985
 H1013 H 0.68114 0.59010 0.08058
 H1014 H 0.59992 0.58145 0.06364
 C1015 C 0.19948 1.07954 0.49658
 C1016 C 0.18657 1.04767 0.54352
 C1017 C 0.14554 1.02093 0.53865
 C1018 C 0.11337 1.03481 0.49417
 C1019 C 0.11361 1.08947 0.49208
 C1020 C 0.15569 1.11113 0.48640
 C1021 C 0.19432 1.04050 0.45335
 C1022 C 0.14820 1.01964 0.45026
 H1023 H 0.21047 1.03957 0.57461
 H1024 H 0.13896 0.98932 0.56223
 H1025 H 0.08745 1.11052 0.51079
 H1026 H 0.15701 1.14998 0.48038
 H1027 H 0.22374 1.03025 0.42809
 H1028 H 0.13941 0.99186 0.42278
 C1029 C 0.20026 -0.07849 1.00011
 C1030 C 0.15792 -0.10772 1.02098
 C1031 C 0.11602 -0.08427 1.02498
 C1032 C 0.11373 -0.03268 1.00595
 C1033 C 0.15389 -0.00859 1.03802
 C1034 C 0.19913 -0.03142 1.03419
 C1035 C 0.18124 -0.05718 0.95004
 C1036 C 0.13844 -0.03294 0.95378
 H1037 H 0.16095 -0.14228 1.03980
 H1038 H 0.09466 -0.09649 1.05508
 H1039 H 0.14826 0.02460 1.05928
 H1040 H 0.23079 -0.01627 1.05225
 H1041 H 0.20383 -0.04993 0.91755
 H1042 H 0.13248 -0.00451 0.92691
 C1043 C 0.69502 0.41151 0.50979
 C1044 C 0.65142 0.38415 0.48779
 C1045 C 0.61111 0.41012 0.48238
 C1046 C 0.60899 0.45851 0.51015
 C1047 C 0.62859 0.44681 0.56342
 C1048 C 0.67284 0.42299 0.56378
 C1049 C 0.69371 0.46251 0.48418
 C1050 C 0.65120 0.48747 0.48845
 H1051 H 0.65143 0.34747 0.47371
 H1052 H 0.58507 0.39841 0.45500
 H1053 H 0.61035 0.45754 0.59811
 H1054 H 0.68597 0.41092 0.59999
 H1055 H 0.72446 0.47977 0.46645
 H1056 H 0.65046 0.52656 0.48391
 C1057 C -0.20348 0.41871 0.49493
 C1058 C -0.15752 0.39350 0.51544
 C1059 C -0.11802 0.41983 0.51975
 C1060 C -0.11847 0.46868 0.49425
 C1061 C -0.14121 0.46005 0.44135
 C1062 C -0.18572 0.43699 0.44185
 C1063 C -0.20365 0.46785 0.52465
 C1064 C -0.16154 0.49460 0.52095
 H1065 H -0.14802 0.35626 0.51318
 H1066 H -0.08892 0.40607 0.54262
 H1067 H -0.12693 0.47659 0.40714
 H1068 H -0.20784 0.43553 0.40798
 H1069 H -0.23535 0.48333 0.54285
 H1070 H -0.16195 0.53302 0.52970
 C1071 C 0.29776 -0.08007 -0.00885
 C1072 C 0.33982 -0.10973 -0.03224
 C1073 C 0.38412 -0.09218 -0.02377
 C1074 C 0.38736 -0.04106 -0.00417
 C1075 C 0.34934 -0.01152 -0.03568
 C1076 C 0.30307 -0.03122 -0.03756
 C1077 C 0.31573 -0.06411 0.04405
 C1078 C 0.36219 -0.05048 0.04604
 H1079 H 0.33796 -0.14695 -0.04343
 H1080 H 0.40900 -0.11935 -0.01042
 H1081 H 0.35768 0.02301 -0.05327
 H1082 H 0.27345 -0.01246 -0.05609
 H1083 H 0.29704 -0.06733 0.07938
 H1084 H 0.38099 -0.06545 0.07789
 C1085 C 0.29588 1.08305 0.50954
 C1086 C 0.33511 1.10718 0.54421
 C1087 C 0.37771 1.08318 0.54821
 C1088 C 0.38397 1.04073 0.51233
 C1089 C 0.34198 1.00711 0.52816
 C1090 C 0.29661 1.02871 0.52732
 C1091 C 0.32120 1.07551 0.45842
 C1092 C 0.36786 1.06304 0.46214
 H1093 H 0.32996 1.13817 0.56834
 H1094 H 0.39930 1.08922 0.58103
 H1095 H 0.34684 0.96860 0.53511
 H1096 H 0.26563 1.00525 0.52942
 H1097 H 0.30613 1.08295 0.42150
 H1098 H 0.39208 1.07927 0.43565
 C1099 C -0.19777 0.58719 1.00673
 C1100 C -0.15870 0.61077 1.04230
 C1101 C -0.11680 0.58522 1.04829
 C1102 C -0.10976 0.54240 1.01260
 C1103 C -0.15370 0.51033 1.02803
 C1104 C -0.19858 0.53394 1.02721
 C1105 C -0.16948 0.57879 0.95695
 C1106 C -0.12369 0.56503 0.96234
 H1107 H -0.16396 0.64134 1.06698
 H1108 H -0.10036 0.58713 1.08487
 H1109 H -0.14933 0.47406 1.04335
 H1110 H -0.23056 0.51704 1.04310
 H1111 H -0.18020 0.58596 0.91885
 H1112 H -0.09831 0.57874 0.93509
 C1113 C 0.00334 0.70215 0.59635
 C1114 C 0.05398 0.68168 0.58209
 C1115 C 0.05439 0.63865 0.55721
 C1116 C 0.00550 0.61844 0.53925
 C1117 C -0.02154 0.61697 0.59187
 C1118 C -0.02066 0.65735 0.62052
 C1119 C -0.02281 0.70327 0.54314
 C1120 C -0.01989 0.66174 0.51402
 H1121 H 0.08755 0.69113 0.59980
 H1122 H 0.08425 0.61545 0.56696
 H1123 H -0.04316 0.58776 0.60642
 H1124 H -0.03878 0.65538 0.65627
 H1125 H -0.04528 0.73305 0.53000
 H1126 H -0.03819 0.65877 0.47783
 C1127 C 0.50214 0.20184 0.09597
 C1128 C 0.55302 0.18307 0.08021
 C1129 C 0.55449 0.14076 0.05387
 C1130 C 0.50601 0.11777 0.03876
 C1131 C 0.48060 0.11587 0.09219
 C1132 C 0.48032 0.15653 0.12071
 C1133 C 0.47514 0.20238 0.04328
 C1134 C 0.47816 0.16036 0.01431
 H1135 H 0.58675 0.19386 0.09665
 H1136 H 0.58677 0.12054 0.05922
 H1137 H 0.46019 0.08617 0.10695
 H1138 H 0.46281 0.15495 0.15699
 H1139 H 0.45354 0.23279 0.03006
 H1140 H 0.46008 0.15710 -0.02197
 C1141 C -0.00532 0.20215 0.91400
 C1142 C 0.04335 0.18066 0.93341
 C1143 C 0.04021 0.13997 0.96270
 C1144 C -0.01161 0.12100 0.97384
 C1145 C -0.03460 0.16744 0.99704
 C1146 C -0.03337 0.20811 0.96594
 C1147 C -0.03104 0.15851 0.89085
 C1148 C -0.03673 0.12026 0.92119
 H1149 H 0.07795 0.19853 0.92899
 H1150 H 0.07223 0.12606 0.98176
 H1151 H -0.04758 0.16999 1.03578
 H1152 H -0.04890 0.24187 0.97921
 H1153 H -0.05222 0.15809 0.85711
 H1154 H -0.06455 0.09476 0.91038
 C1155 C 0.49497 0.69836 0.40478
 C1156 C 0.44388 0.67700 0.41380
 C1157 C 0.44266 0.63307 0.43696
 C1158 C 0.49062 0.61309 0.45857
 C1159 C 0.52186 0.61355 0.40863
 C1160 C 0.52211 0.65489 0.38128
 C1161 C 0.51566 0.69867 0.46039
 C1162 C 0.51216 0.65598 0.48753
 H1163 H 0.41092 0.68877 0.39600
 H1164 H 0.41337 0.61023 0.42560
 H1165 H 0.54307 0.58396 0.39377
 H1166 H 0.54089 0.65433 0.34565
 H1167 H 0.53308 0.72914 0.47798
 H1168 H 0.52587 0.65257 0.52587
 C1169 C 0.49855 0.79653 0.41103
 C1170 C 0.48314 0.84308 0.38549
 C1171 C 0.48161 0.88216 0.41497
 C1172 C 0.49896 0.87782 0.47170
 C1173 C 0.46476 0.83740 0.49007
 C1174 C 0.46469 0.79580 0.45989
 C1175 C 0.54783 0.81045 0.43584
 C1176 C 0.54679 0.84944 0.46807
 H1177 H 0.46715 0.84586 0.34856
 H1178 H 0.45910 0.91069 0.40013
 H1179 H 0.44379 0.84016 0.52478
 H1180 H 0.44356 0.76457 0.47120
 H1181 H 0.57937 0.78753 0.43734
 H1182 H 0.57504 0.85317 0.49599
 C1183 C 0.00053 0.30014 0.91018
 C1184 C 0.02453 0.34348 0.88435
 C1185 C 0.03309 0.38179 0.91459
 C1186 C 0.00930 0.38186 0.96879
 C1187 C -0.04323 0.36408 0.95822
 C1188 C -0.04777 0.32387 0.92832
 C1189 C 0.02883 0.29526 0.96210
 C1190 C 0.03114 0.33585 0.99220
 H1191 H 0.03848 0.34321 0.84596
 H1192 H 0.05908 0.40806 0.90113
 H1193 H -0.07524 0.38015 0.97549
 H1194 H -0.08380 0.31175 0.92047
 H1195 H 0.04405 0.26203 0.97662
 H1196 H 0.04320 0.33299 1.03116
 C1197 C 0.49789 0.30190 0.09624
 C1198 C 0.44711 0.32389 0.08607
 C1199 C 0.44655 0.36691 0.06104
 C1200 C 0.49482 0.38524 0.03858
 C1201 C 0.52594 0.38576 0.08835
 C1202 C 0.52470 0.34608 0.11803
 C1203 C 0.51961 0.29907 0.04099
 C1204 C 0.51640 0.34069 0.01169
 H1205 H 0.41422 0.31453 0.10542
 H1206 H 0.41762 0.39099 0.07169
 H1207 H 0.55080 0.41341 0.09990
 H1208 H 0.54348 0.34811 0.15344
 H1209 H 0.53943 0.26801 0.02660
 H1210 H 0.53190 0.34268 -0.02607
 C1211 C -0.00021 0.80305 0.59686
 C1212 C -0.05001 0.82881 0.59255
 C1213 C -0.04981 0.87211 0.56873
 C1214 C -0.00374 0.88600 0.53908
 C1215 C 0.03460 0.88340 0.58282
 C1216 C 0.03191 0.84545 0.61480
 C1217 C 0.01575 0.79889 0.53942
 C1218 C 0.01078 0.84017 0.50980
 H1219 H -0.08270 0.82035 0.61265
 H1220 H -0.07645 0.89845 0.58122
 H1221 H 0.06704 0.90501 0.58592
 H1222 H 0.05364 0.84714 0.64847
 H1223 H 0.03659 0.76871 0.52451
 H1224 H 0.02428 0.84166 0.47118
 C1225 C 0.24705 0.35114 0.05429
 C1226 C 0.22144 0.30004 0.05304
 C1227 C 0.21368 0.27815 0.09950
 C1228 C 0.23272 0.30678 0.14508
 C1229 C 0.28687 0.31717 0.12731
 C1230 C 0.29344 0.33786 0.08183
 C1231 C 0.21863 0.37955 0.09529
 C1232 C 0.20808 0.35577 0.13812
 H1233 H 0.21259 0.28052 0.01895
 H1234 H 0.19765 0.24246 0.10298
 H1235 H 0.31975 0.30909 0.14726
 H1236 H 0.32983 0.34204 0.06797
 H1237 H 0.20195 0.41407 0.09063
 H1238 H 0.17394 0.36629 0.15339
 C1239 C 0.74424 0.84475 0.54809
 C1240 C 0.69326 0.82020 0.55742
 C1241 C 0.68714 0.79689 0.60310
 C1242 C 0.73305 0.79412 0.63543
 C1243 C 0.76963 0.77199 0.59580
 C1244 C 0.77670 0.79879 0.55226
 C1245 C 0.75485 0.87144 0.59688
 C1246 C 0.75177 0.84649 0.63909
 H1247 H 0.66456 0.81969 0.52936
 H1248 H 0.65410 0.77778 0.61273
 H1249 H 0.78017 0.73418 0.59568
 H1250 H 0.79650 0.78330 0.52069
 H1251 H 0.75375 0.90951 0.60210
 H1252 H 0.76221 0.86527 0.67312
 C1253 C 0.25518 0.64774 0.54750
 C1254 C 0.20903 0.66481 0.57348
 C1255 C 0.21598 0.68741 0.61776
 C1256 C 0.27032 0.69492 0.63610
 C1257 C 0.29177 0.64444 0.63244
 C1258 C 0.28130 0.61955 0.59041
 C1259 C 0.28379 0.69709 0.54411
 C1260 C 0.29216 0.72040 0.58962
 H1261 H 0.17290 0.66367 0.55851
 H1262 H 0.18361 0.70093 0.63563
 H1263 H 0.32018 0.63035 0.65495
 H1264 H 0.29394 0.58295 0.58869
 H1265 H 0.29604 0.71305 0.50884
 H1266 H 0.31121 0.75463 0.59185
 C1267 C 0.75559 0.15092 0.04885
 C1268 C 0.70959 0.16921 0.07376
 C1269 C 0.71639 0.19087 0.11856
 C1270 C 0.77076 0.19775 0.13768
 C1271 C 0.79145 0.14713 0.13400
 C1272 C 0.78096 0.12266 0.09214
 C1273 C 0.78479 0.19989 0.04548
 C1274 C 0.79329 0.22303 0.09121
 H1275 H 0.67362 0.16772 0.05805
 H1276 H 0.68373 0.20168 0.13736
 H1277 H 0.82175 0.13309 0.15357
 H1278 H 0.79421 0.08652 0.09117
 H1279 H 0.79677 0.21584 0.01005
 H1280 H 0.81247 0.25717 0.09357
 C1281 C 0.74032 0.14918 0.94656
 C1282 C 0.78663 0.16103 0.91920
 C1283 C 0.78051 0.18078 0.87407
 C1284 C 0.72736 0.19661 0.85760
 C1285 C 0.69792 0.15092 0.86379
 C1286 C 0.70972 0.12343 0.90437
 C1287 C 0.71656 0.20130 0.95021
 C1288 C 0.71058 0.22555 0.90447
 H1289 H 0.82315 0.15334 0.93038
 H1290 H 0.81282 0.17751 0.85154
 H1291 H 0.66782 0.14118 0.84015
 H1292 H 0.69559 0.08708 0.90632
 H1293 H 0.70516 0.21801 0.98539
 H1294 H 0.69437 0.26141 0.90204
 C1295 C 0.24171 0.64962 0.44511
 C1296 C 0.28823 0.66434 0.41893
 C1297 C 0.28207 0.68805 0.37515
 C1298 C 0.22820 0.69992 0.35747
 C1299 C 0.20257 0.65170 0.36162
 C1300 C 0.21378 0.62427 0.40190
 C1301 C 0.21557 0.70074 0.44992
 C1302 C 0.20868 0.72605 0.40488
 H1303 H 0.32445 0.66034 0.43322
 H1304 H 0.31515 0.69881 0.35714
 H1305 H 0.16681 0.64564 0.34769
 H1306 H 0.19598 0.59026 0.40479
 H1307 H 0.20378 0.71624 0.48558
 H1308 H 0.19137 0.76144 0.40351
 C1309 C 0.76387 0.85173 0.44737
 C1310 C 0.81662 0.83190 0.43229
 C1311 C 0.82106 0.80988 0.38564
 C1312 C 0.77344 0.80451 0.35759
 C1313 C 0.74132 0.77944 0.39838
 C1314 C 0.73454 0.80424 0.44224
 C1315 C 0.75206 0.88130 0.40030
 C1316 C 0.75181 0.85619 0.35715
 H1317 H 0.84617 0.82320 0.45715
 H1318 H 0.85366 0.79041 0.37439
 H1319 H 0.73191 0.74141 0.39776
 H1320 H 0.71642 0.78597 0.47280
 H1321 H 0.73401 0.91615 0.40088
 H1322 H 0.72119 0.86577 0.33442
 C1323 C 0.26255 0.34551 0.95319
 C1324 C 0.29588 0.29824 0.95970
 C1325 C 0.30569 0.27224 0.91547
 C1326 C 0.27938 0.29236 0.86867
 C1327 C 0.22658 0.29376 0.89188
 C1328 C 0.21743 0.32323 0.93111
 C1329 C 0.28455 0.37197 0.90753
 C1330 C 0.29676 0.34428 0.86815
 H1331 H 0.30833 0.28479 0.99604
 H1332 H 0.32654 0.23877 0.91518
 H1333 H 0.20315 0.26256 0.89090
 H1334 H 0.18378 0.31839 0.95113
 H1335 H 0.29867 0.40793 0.90813
 H1336 H 0.33040 0.35445 0.85174
 C1337 C 0.83790 0.44383 0.75905
 C1338 C 0.85559 0.40618 0.80070
 C1339 C 0.82880 0.36485 0.80535
 C1340 C 0.79237 0.35743 0.76281
 C1341 C 0.75869 0.40230 0.77031
 C1342 C 0.78260 0.44653 0.77109
 C1343 C 0.83666 0.41278 0.71071
 C1344 C 0.82322 0.36757 0.71670
 H1345 H 0.88763 0.40868 0.82381
 H1346 H 0.83494 0.33930 0.83575
 H1347 H 0.72102 0.39903 0.78161
 H1348 H 0.76456 0.47861 0.78557
 H1349 H 0.84251 0.42271 0.67201
 H1350 H 0.83670 0.34087 0.68998
 C1351 C 0.33300 0.95110 0.25517
 C1352 C 0.35644 0.91048 0.28896
 C1353 C 0.33096 0.86909 0.29326
 C1354 C 0.28855 0.86400 0.25738
 C1355 C 0.25602 0.90726 0.27409
 C1356 C 0.27915 0.95204 0.27429
 C1357 C 0.32496 0.92604 0.20393
 C1358 C 0.31042 0.88018 0.20719
 H1359 H 0.38688 0.91433 0.31395
 H1360 H 0.33241 0.85144 0.32923
 H1361 H 0.21844 0.90307 0.28535
 H1362 H 0.25947 0.98453 0.28465
 H1363 H 0.33373 0.93959 0.16692
 H1364 H 0.32615 0.85582 0.18055
 C1365 C 0.17134 0.95069 0.73845
 C1366 C 0.16319 0.92169 0.68805
 C1367 C 0.18514 0.87692 0.68421
 C1368 C 0.21506 0.86200 0.73042
 C1369 C 0.25119 0.90503 0.73398
 C1370 C 0.22897 0.95019 0.74040
 C1371 C 0.16828 0.91596 0.78146
 C1372 C 0.17956 0.87024 0.77332
 H1373 H 0.15242 0.93937 0.65318
 H1374 H 0.19075 0.86093 0.64726
 H1375 H 0.28996 0.89985 0.73867
 H1376 H 0.25102 0.97788 0.75773
 H1377 H 0.17489 0.92840 0.82001
 H1378 H 0.16884 0.84444 0.80091
 C1379 C 0.67660 0.45449 0.23994
 C1380 C 0.70310 0.43754 0.28815
 C1381 C 0.73000 0.39646 0.28263
 C1382 C 0.72464 0.36897 0.23298
 C1383 C 0.67196 0.36978 0.21836
 C1384 C 0.64794 0.41114 0.22201
 C1385 C 0.72112 0.45386 0.20159
 C1386 C 0.74480 0.40866 0.19679
 H1387 H 0.71141 0.46090 0.31962
 H1388 H 0.76066 0.39040 0.30734
 H1389 H 0.65928 0.34787 0.18899
 H1390 H 0.61383 0.41323 0.20247
 H1391 H 0.73442 0.48606 0.18251
 H1392 H 0.77675 0.40342 0.17336
 C1393 C 0.66803 0.55227 0.25466
 C1394 C 0.67171 0.58127 0.20488
 C1395 C 0.68240 0.62791 0.21024
 C1396 C 0.70703 0.64192 0.25945
 C1397 C 0.66645 0.63254 0.29742
 C1398 C 0.64399 0.58907 0.29265
 C1399 C 0.72255 0.55376 0.27028
 C1400 C 0.74275 0.59971 0.27144
 H1401 H 0.66530 0.56874 0.16708
 H1402 H 0.66733 0.65312 0.18353
 H1403 H 0.66213 0.65137 0.33240
 H1404 H 0.61460 0.58164 0.31833
 H1405 H 0.74508 0.52225 0.27677
 H1406 H 0.78063 0.60547 0.28039
 C1407 C 0.16571 0.04794 0.75736
 C1408 C 0.18528 0.06149 0.81112
 C1409 C 0.20853 0.10579 0.81422
 C1410 C 0.21613 0.13167 0.76265
 C1411 C 0.24179 0.09074 0.73383
 C1412 C 0.21378 0.05079 0.72557
 C1413 C 0.13999 0.09478 0.74050
 C1414 C 0.16674 0.13400 0.73673
 H1415 H 0.18424 0.03689 0.84324
 H1416 H 0.22552 0.11801 0.84893
 H1417 H 0.28030 0.08959 0.72595
 H1418 H 0.22458 0.02595 0.69590
 H1419 H 0.10235 0.10204 0.73801
 H1420 H 0.14992 0.16582 0.72036
 C1421 C 0.33229 0.05024 0.24560
 C1422 C 0.36130 0.09325 0.22586
 C1423 C 0.33765 0.13561 0.22402
 C1424 C 0.28583 0.13735 0.24340
 C1425 C 0.26234 0.09821 0.20901
 C1426 C 0.28531 0.05264 0.21113
 C1427 C 0.31136 0.06800 0.29605
 C1428 C 0.28553 0.10945 0.29328
 H1429 H 0.39519 0.09017 0.20552
 H1430 H 0.34893 0.15726 0.19373
 H1431 H 0.22953 0.10466 0.18742
 H1432 H 0.27092 0.02148 0.19126
 H1433 H 0.29991 0.04300 0.32500
 H1434 H 0.25044 0.10194 0.30865
 C1435 C 0.83927 0.54654 0.74480
 C1436 C 0.78640 0.54695 0.72369
 C1437 C 0.76378 0.59212 0.72265
 C1438 C 0.79633 0.63524 0.73871
 C1439 C 0.81788 0.62100 0.78900
 C1440 C 0.83113 0.57510 0.79460
 C1441 C 0.86386 0.58540 0.70919
 C1442 C 0.83996 0.62836 0.70399
 H1443 H 0.76936 0.51583 0.70637
 H1444 H 0.72809 0.59728 0.70629
 H1445 H 0.83299 0.64641 0.81517
 H1446 H 0.83979 0.56565 0.83263
 H1447 H 0.89430 0.57990 0.68442
 H1448 H 0.84656 0.64924 0.67066
 C1449 C 0.94868 0.75321 0.15392
 C1450 C 0.94968 0.72726 0.20731
 C1451 C 0.90784 0.73080 0.23656
 C1452 C 0.86521 0.75797 0.21157
 C1453 C 0.88788 0.80628 0.19524
 C1454 C 0.92998 0.80441 0.16860
 C1455 C 0.90348 0.73084 0.13001
 C1456 C 0.86324 0.73108 0.15902
 H1457 H 0.98019 0.70599 0.22079
 H1458 H 0.90475 0.71348 0.27335
 H1459 H 0.86810 0.83900 0.19111
 H1460 H 0.94143 0.83810 0.15235
 H1461 H 0.90214 0.71153 0.09477
 H1462 H 0.83520 0.70707 0.14669
 C1463 C 0.45150 0.24823 0.65548
 C1464 C 0.45356 0.22165 0.70854
 C1465 C 0.41267 0.22486 0.73880
 C1466 C 0.36917 0.25107 0.71487
 C1467 C 0.38977 0.29978 0.69638
 C1468 C 0.43239 0.29894 0.67067
 C1469 C 0.40598 0.22479 0.63252
 C1470 C 0.36615 0.22445 0.66226
 H1471 H 0.48378 0.19943 0.72105
 H1472 H 0.41038 0.20668 0.77520
 H1473 H 0.36681 0.32965 0.68618
 H1474 H 0.44333 0.33256 0.65377
 H1475 H 0.40317 0.20705 0.59668
 H1476 H 0.33583 0.20439 0.64811
 C1477 C 0.45463 0.74523 0.83007
 C1478 C 0.43340 0.79349 0.80875
 C1479 C 0.39141 0.79069 0.78178
 C1480 C 0.37201 0.73909 0.77185
 C1481 C 0.41769 0.71595 0.74757
 C1482 C 0.45955 0.71845 0.77695
 C1483 C 0.41135 0.71837 0.85287
 C1484 C 0.37192 0.71438 0.82419
 H1485 H 0.45284 0.82736 0.80740
 H1486 H 0.37846 0.82223 0.76108
 H1487 H 0.41972 0.70682 0.70761
 H1488 H 0.49257 0.71347 0.75617
 H1489 H 0.41385 0.68873 0.87856
 H1490 H 0.34726 0.68534 0.83382
 C1491 C 0.95129 0.24876 0.34258
 C1492 C 0.94803 0.28180 0.29409
 C1493 C 0.90614 0.27767 0.26584
 C1494 C 0.87021 0.23875 0.28414
 C1495 C 0.90485 0.19412 0.28744
 C1496 C 0.94296 0.19777 0.31990
 C1497 C 0.90413 0.25990 0.36922
 C1498 C 0.86448 0.25085 0.34236
 H1499 H 0.97621 0.30585 0.28135
 H1500 H 0.90080 0.29805 0.23109
 H1501 H 0.91388 0.17071 0.25639
 H1502 H 0.96955 0.16893 0.32068
 H1503 H 0.90067 0.26881 0.40890
 H1504 H 0.83333 0.24437 0.36615
 C1505 C 0.04730 0.25630 0.34502
 C1506 C 0.05069 0.22683 0.29346
 C1507 C 0.09358 0.23051 0.26643
 C1508 C 0.13145 0.26429 0.28942
 C1509 C 0.10010 0.31119 0.29739
 C1510 C 0.05974 0.30750 0.32689
 C1511 C 0.09320 0.24101 0.37239
 C1512 C 0.13414 0.24400 0.34524
 H1513 H 0.02159 0.20750 0.27591
 H1514 H 0.09844 0.21349 0.22970
 H1515 H 0.09282 0.33784 0.26928
 H1516 H 0.03409 0.33726 0.32767
 H1517 H 0.09453 0.22680 0.41057
 H1518 H 0.16502 0.22811 0.36294
 C1519 C 0.55187 0.74695 0.83555
 C1520 C 0.59775 0.75045 0.86610
 C1521 C 0.63818 0.75625 0.83939
 C1522 C 0.63556 0.75346 0.77970
 C1523 C 0.60741 0.70603 0.77273
 C1524 C 0.56594 0.70177 0.80155
 C1525 C 0.55536 0.78948 0.79614
 C1526 C 0.59709 0.79197 0.76746
 H1527 H 0.59971 0.75779 0.90582
 H1528 H 0.66656 0.77105 0.86181
 H1529 H 0.61930 0.67741 0.74729
 H1530 H 0.54631 0.66854 0.79758
 H1531 H 0.52754 0.81646 0.79095
 H1532 H 0.60142 0.81890 0.73799
 C1533 C 0.55168 0.24655 0.65266
 C1534 C 0.59390 0.27863 0.63371
 C1535 C 0.63191 0.28231 0.66586
 C1536 C 0.63458 0.24456 0.71041
 C1537 C 0.58861 0.25904 0.73940
 C1538 C 0.54746 0.26337 0.70977
 C1539 C 0.57776 0.19711 0.65768
 C1540 C 0.62117 0.19822 0.68102
 H1541 H 0.59562 0.29801 0.59822
 H1542 H 0.65415 0.31419 0.66173
 H1543 H 0.58987 0.27310 0.77775
 H1544 H 0.51715 0.28418 0.72442
 H1545 H 0.56988 0.16440 0.63750
 H1546 H 0.64813 0.17267 0.66739
 C1547 C 0.04835 0.74838 0.15284
 C1548 C 0.06944 0.69747 0.16480
 C1549 C 0.11266 0.69682 0.18919
 C1550 C 0.13215 0.74538 0.20927
 C1551 C 0.13289 0.77456 0.15802
 C1552 C 0.09265 0.77365 0.12930
 C1553 C 0.04647 0.77184 0.20723
 C1554 C 0.08835 0.76883 0.23592
 H1555 H 0.05954 0.66415 0.14676
 H1556 H 0.13610 0.66733 0.17869
 H1557 H 0.16222 0.79590 0.14356
 H1558 H 0.09453 0.79034 0.09260
 H1559 H 0.01570 0.79219 0.22153
 H1560 H 0.09095 0.78524 0.27315
   
