data_POSCAR
  _audit_creation_date              2014-09-24
  _audit_creation_method            'ToBaCCo'
  _symmetry_space_group_name_H-M    'P1'
  _symmetry_Int_Tables_number       1
  _symmetry_cell_setting            triclinic
  loop_
  _symmetry_equiv_pos_as_xyz
 x,y,z
_cell_length_a 48.5400
_cell_length_b 49.0144
_cell_length_c 48.7234
_cell_angle_alpha 89.151500
_cell_angle_beta 88.992800
_cell_angle_gamma 87.913900
loop_
  _atom_site_label
  _atom_site_type_symbol
  _atom_site_fract_x
  _atom_site_fract_y
  _atom_site_fract_z
C1 C 0.71793 0.65046 0.95906
 H2 H 0.73199 0.64029 0.94479
 C3 C 0.69346 0.66266 0.94943
 H4 H 0.68868 0.66159 0.92785
 C5 C 0.70654 0.66395 1.00449
 H6 H 0.71147 0.66413 1.02598
 C7 C 0.68185 0.67648 0.99570
 H8 H 0.66793 0.68630 1.01044
 N9 N 0.72360 0.65051 0.98632
 C10 C 0.80353 0.63718 1.02435
 H11 H 0.80218 0.61563 1.02907
 C12 C 0.82584 0.65143 1.03343
 H13 H 0.84170 0.64085 1.04529
 C14 C 0.78425 0.67730 1.00333
 H15 H 0.76789 0.68715 0.99161
 C16 C 0.80643 0.69236 1.01190
 H17 H 0.80719 0.71390 1.00677
 Zn18 Zn 0.75392 0.62855 0.99935
 N19 N 0.78329 0.65022 1.00969
 C20 C 0.79301 0.60551 0.96200
 N21 N 0.76642 0.60441 0.97117
 C22 C 0.74833 0.58787 0.95913
 C23 C 0.75666 0.57202 0.93662
 C24 C 0.80222 0.58985 0.93980
 C25 C 0.74056 0.62347 1.05476
 C26 C 0.73234 0.61108 1.07931
 C27 C 0.72911 0.56863 1.05533
 C28 C 0.73745 0.58194 1.03116
 N29 N 0.74266 0.60899 1.03124
 H30 H 0.80698 0.61911 0.97133
 H31 H 0.72713 0.58776 0.96638
 H32 H 0.74195 0.55951 0.92669
 H33 H 0.82325 0.59145 0.93228
 H34 H 0.74567 0.64477 1.05455
 H35 H 0.73178 0.62333 1.09764
 H36 H 0.72324 0.54760 1.05397
 H37 H 0.73925 0.57067 1.01232
 C38 C 0.82731 0.67937 1.02743
 C39 C 0.67476 0.67505 0.96802
 C40 C 0.72655 0.58302 1.08026
 C41 C 0.78390 0.57303 0.92679
 C42 C 0.73011 0.33757 0.52127
 H43 H 0.75093 0.33003 0.52510
 C44 C 0.70774 0.32213 0.52964
 H45 H 0.71133 0.30256 0.53981
 C46 C 0.69983 0.37274 0.50432
 H47 H 0.69693 0.39272 0.49487
 C48 C 0.67694 0.35798 0.51230
 H49 H 0.65639 0.36663 0.50900
 N50 N 0.72575 0.36236 0.50885
 C51 C 0.81228 0.36843 0.50145
 H52 H 0.81389 0.38573 0.51461
 C53 C 0.83607 0.35283 0.49498
 H54 H 0.85573 0.35842 0.50297
 C55 C 0.78521 0.33975 0.47498
 H56 H 0.76527 0.33443 0.46762
 C57 C 0.80849 0.32348 0.46814
 H58 H 0.80651 0.30603 0.45504
 Zn59 Zn 0.75546 0.38448 0.49892
 N60 N 0.78750 0.36206 0.49103
 C61 C 0.78111 0.42766 0.52576
 N62 N 0.76250 0.40765 0.52873
 C63 C 0.75047 0.40214 0.55356
 C64 C 0.75837 0.41576 0.57693
 C65 C 0.78966 0.44174 0.54865
 C66 C 0.74032 0.39103 0.44396
 C67 C 0.72953 0.40443 0.42089
 C68 C 0.72851 0.44668 0.44586
 C69 C 0.73940 0.43246 0.46852
 N70 N 0.74486 0.40504 0.46726
 H71 H 0.79041 0.43166 0.50583
 H72 H 0.73572 0.38623 0.55555
 H73 H 0.74970 0.41030 0.59681
 H74 H 0.80554 0.45660 0.54635
 H75 H 0.74409 0.36923 0.44353
 H76 H 0.72529 0.39291 0.40274
 H77 H 0.72346 0.46833 0.44725
 H78 H 0.74235 0.44315 0.48739
 C79 C 0.83425 0.33017 0.47808
 C80 C 0.68083 0.33235 0.52501
 C81 C 0.72305 0.43243 0.42196
 C82 C 0.77883 0.43512 0.57462
 C83 C 0.22207 -0.16236 0.03002
 H84 H 0.24303 -0.16931 0.03398
 C85 C 0.20008 -0.17773 0.03972
 H86 H 0.20417 -0.19676 0.05074
 C87 C 0.19092 -0.12864 0.01199
 H88 H 0.18735 -0.10906 0.00196
 C89 C 0.16845 -0.14323 0.02138
 H90 H 0.14772 -0.13502 0.01815
 N91 N 0.21712 -0.13888 0.01536
 C92 C 0.29741 -0.12523 -0.02457
 H93 H 0.29676 -0.10325 -0.02271
 C94 C 0.32036 -0.13843 -0.03665
 H95 H 0.33746 -0.12662 -0.04408
 C96 C 0.27571 -0.16740 -0.01758
 H97 H 0.25797 -0.17855 -0.01096
 C98 C 0.29840 -0.18148 -0.02950
 H99 H 0.29822 -0.20344 -0.03154
 Zn100 Zn 0.24632 -0.11816 0.00028
 N101 N 0.27582 -0.13977 -0.01498
 C102 C 0.28448 -0.10268 0.03964
 N103 N 0.25943 -0.09647 0.02862
 C104 C 0.24287 -0.07577 0.03858
 C105 C 0.25165 -0.05995 0.06018
 C106 C 0.29398 -0.08748 0.06127
 C107 C 0.21532 -0.10848 -0.04618
 C108 C 0.20195 -0.09347 -0.06674
 C109 C 0.22733 -0.05415 -0.05421
 C110 C 0.23916 -0.06969 -0.03282
 N111 N 0.23241 -0.09616 -0.02886
 H112 H 0.29693 -0.11974 0.03202
 H113 H 0.22283 -0.07162 0.02976
 H114 H 0.23840 -0.04351 0.06805
 H115 H 0.31392 -0.09262 0.06999
 H116 H 0.21136 -0.12993 -0.04341
 H117 H 0.18827 -0.10394 -0.08004
 H118 H 0.23253 -0.03292 -0.05647
 H119 H 0.25358 -0.06058 -0.01932
 C120 C 0.32091 -0.16683 -0.03926
 C121 C 0.17293 -0.16846 0.03468
 C122 C 0.20713 -0.06555 -0.07066
 C123 C 0.27754 -0.06579 0.07159
 C124 C 0.23218 0.14293 0.46190
 H125 H 0.24666 0.13394 0.44723
 C126 C 0.20740 0.15488 0.45277
 H127 H 0.20277 0.15489 0.43111
 C128 C 0.22001 0.15330 0.50802
 H129 H 0.22480 0.15221 0.52958
 C130 C 0.19503 0.16555 0.49976
 H131 H 0.18070 0.17398 0.51496
 N132 N 0.23761 0.14158 0.48920
 C133 C 0.31843 0.13033 0.52511
 H134 H 0.31775 0.10898 0.53095
 C135 C 0.34025 0.14579 0.53337
 H136 H 0.35641 0.13633 0.54571
 C137 C 0.29780 0.16883 0.50238
 H138 H 0.28107 0.17762 0.49041
 C139 C 0.31949 0.18501 0.50995
 H140 H 0.31952 0.20631 0.50374
 Zn141 Zn 0.26811 0.11989 0.50169
 N142 N 0.29765 0.14207 0.51020
 C143 C 0.30589 0.09484 0.46431
 N144 N 0.27934 0.09506 0.47374
 C145 C 0.26011 0.07993 0.46157
 C146 C 0.26715 0.06445 0.43846
 C147 C 0.31383 0.07952 0.44143
 C148 C 0.25858 0.11555 0.55808
 C149 C 0.24777 0.10495 0.58251
 C150 C 0.23475 0.06507 0.55793
 C151 C 0.24598 0.07638 0.53391
 N152 N 0.25706 0.10148 0.53431
 H153 H 0.32078 0.10735 0.47381
 H154 H 0.23895 0.08103 0.46891
 H155 H 0.25148 0.05335 0.42827
 H156 H 0.33478 0.08034 0.43351
 H157 H 0.26726 0.13556 0.55788
 H158 H 0.24830 0.11671 0.60113
 H159 H 0.22504 0.04555 0.55729
 H160 H 0.24499 0.06547 0.51491
 C161 C 0.34068 0.17353 0.52614
 C162 C 0.18819 0.16551 0.47195
 C163 C 0.23497 0.07983 0.58232
 C164 C 0.29425 0.06438 0.42808
 C165 C 0.14115 0.45020 0.22819
 H166 H 0.13098 0.43573 0.24151
 C167 C 0.15584 0.44094 0.20507
 H168 H 0.15686 0.41934 0.20061
 C169 C 0.15149 0.49603 0.21707
 H170 H 0.14922 0.51752 0.22170
 C171 C 0.16629 0.48764 0.19362
 H172 H 0.17562 0.50267 0.18024
 N173 N 0.13904 0.47735 0.23359
 C174 C 0.12340 0.50910 0.31585
 H175 H 0.10122 0.50778 0.31718
 C176 C 0.13764 0.51933 0.33782
 H177 H 0.12641 0.52591 0.35610
 C178 C 0.16507 0.50256 0.29025
 H179 H 0.17560 0.49612 0.27160
 C180 C 0.18015 0.51281 0.31178
 H181 H 0.20228 0.51437 0.30963
 Zn182 Zn 0.11585 0.48979 0.26272
 N183 N 0.13714 0.50138 0.29247
 C184 C 0.09854 0.44861 0.29951
 N185 N 0.09334 0.46077 0.27474
 C186 C 0.07378 0.45122 0.25800
 C187 C 0.05852 0.42871 0.26607
 C188 C 0.08360 0.42634 0.30846
 C189 C 0.09363 0.54428 0.26221
 C190 C 0.08130 0.56753 0.25015
 C191 C 0.07017 0.54053 0.21105
 C192 C 0.08257 0.51770 0.22394
 N193 N 0.09427 0.51997 0.24897
 H194 H 0.11486 0.45559 0.31210
 H195 H 0.07039 0.46064 0.23813
 H196 H 0.04328 0.42099 0.25249
 H197 H 0.08820 0.41666 0.32806
 H198 H 0.10365 0.54614 0.28161
 H199 H 0.08175 0.58694 0.26044
 H200 H 0.06192 0.53881 0.19067
 H201 H 0.08425 0.49855 0.21323
 C202 C 0.16623 0.52185 0.33560
 C203 C 0.16846 0.45979 0.18745
 C204 C 0.06995 0.56580 0.22410
 C205 C 0.06335 0.41622 0.29166
 C206 C -0.16847 0.01359 0.22273
 H207 H -0.18030 0.01029 0.24142
 C208 C -0.18140 0.02500 0.19959
 H209 H -0.20315 0.03066 0.20095
 C210 C -0.12564 0.01096 0.19871
 H211 H -0.10387 0.00537 0.19859
 C212 C -0.13763 0.02238 0.17525
 H213 H -0.12499 0.02472 0.15687
 N214 N -0.14092 0.00755 0.22206
 C215 C -0.14730 -0.04127 0.29067
 H216 H -0.13593 -0.05706 0.27964
 C217 C -0.16278 -0.04839 0.31388
 H218 H -0.16346 -0.06963 0.32025
 C219 C -0.15938 0.00556 0.29680
 H220 H -0.15738 0.02660 0.29031
 C221 C -0.17480 -0.00066 0.32048
 H222 H -0.18470 0.01566 0.33220
 Zn223 Zn -0.12151 -0.00502 0.25337
 N224 N -0.14583 -0.01467 0.28257
 C225 C -0.08692 0.02011 0.29053
 N226 N -0.09969 0.02335 0.26599
 C227 C -0.09954 0.04758 0.25196
 C228 C -0.08679 0.06992 0.26285
 C229 C -0.07405 0.04206 0.30228
 C230 C -0.11299 -0.05553 0.22942
 C231 C -0.09910 -0.07972 0.22197
 C232 C -0.05760 -0.06297 0.24148
 C233 C -0.07237 -0.03899 0.24866
 N234 N -0.09969 -0.03600 0.24297
 H235 H -0.08772 0.00078 0.30147
 H236 H -0.11017 0.05004 0.23278
 H237 H -0.08739 0.08928 0.25183
 H238 H -0.06473 0.03960 0.32224
 H239 H -0.13461 -0.05243 0.22484
 H240 H -0.11001 -0.09526 0.21145
 H241 H -0.03598 -0.06545 0.24638
 H242 H -0.06212 -0.02300 0.25906
 C243 C -0.17660 -0.02797 0.32918
 C244 C -0.16568 0.03072 0.17570
 C245 C -0.07125 -0.08381 0.22847
 C246 C -0.07460 0.06745 0.28864
 C247 C 0.33016 0.52611 0.73290
 H248 H 0.32663 0.53428 0.75321
 C249 C 0.31594 0.53758 0.71056
 H250 H 0.30112 0.55433 0.71377
 C251 C 0.35472 0.49528 0.70356
 H252 H 0.37044 0.47939 0.70066
 C253 C 0.34132 0.50642 0.68069
 H254 H 0.34664 0.49880 0.66045
 N255 N 0.34926 0.50544 0.72902
 C256 C 0.36652 0.46786 0.80927
 H257 H 0.38879 0.46705 0.80766
 C258 C 0.35344 0.45661 0.83225
 H259 H 0.36563 0.44712 0.84843
 C260 C 0.32340 0.48085 0.78995
 H261 H 0.31180 0.48993 0.77324
 C262 C 0.30945 0.46986 0.81269
 H263 H 0.28712 0.47064 0.81348
 Zn264 Zn 0.37198 0.49351 0.75848
 N265 N 0.35147 0.47983 0.78879
 C266 C 0.39246 0.53164 0.79568
 N267 N 0.39233 0.52371 0.76904
 C268 C 0.40598 0.53776 0.74903
 C269 C 0.42088 0.56056 0.75560
 C270 C 0.40731 0.55412 0.80316
 C271 C 0.38407 0.44099 0.74014
 C272 C 0.39995 0.41932 0.72933
 C273 C 0.44035 0.44644 0.73266
 C274 C 0.42367 0.46766 0.74348
 N275 N 0.39598 0.46476 0.74637
 H276 H 0.38100 0.52068 0.81119
 H277 H 0.40519 0.53124 0.72796
 H278 H 0.43172 0.57164 0.73960
 H279 H 0.40744 0.56024 0.82443
 H280 H 0.36204 0.43921 0.74291
 H281 H 0.39015 0.40077 0.72365
 H282 H 0.46225 0.44908 0.72964
 H283 H 0.43278 0.48655 0.74899
 C284 C 0.32460 0.45741 0.83397
 C285 C 0.32224 0.52828 0.68399
 C286 C 0.42827 0.42222 0.72499
 C287 C 0.42174 0.56870 0.78297
 C288 C 0.64986 0.95996 0.72986
 H289 H 0.64500 0.94541 0.74598
 C290 C 0.66503 0.95144 0.70672
 H291 H 0.67179 0.93022 0.70501
 C292 C 0.64550 1.00500 0.71159
 H293 H 0.63746 1.02577 0.71341
 C294 C 0.66078 0.99740 0.68821
 H295 H 0.66449 1.01237 0.67212
 N296 N 0.64011 0.98625 0.73166
 C297 C 0.62189 1.01244 0.81530
 H298 H 0.59978 1.01587 0.81419
 C299 C 0.63547 1.01829 0.83934
 H300 H 0.62354 1.02701 0.85625
 C301 C 0.66410 0.99914 0.79344
 H302 H 0.67513 0.99177 0.77540
 C303 C 0.67861 1.00488 0.81711
 H304 H 0.70077 1.00143 0.81701
 Zn305 Zn 0.61598 0.99599 0.76105
 N306 N 0.63623 1.00288 0.79302
 C307 C 0.59091 0.95508 0.79359
 N308 N 0.59246 0.96628 0.76789
 C309 C 0.57997 0.95462 0.74639
 C310 C 0.56546 0.93069 0.75031
 C311 C 0.57670 0.93124 0.79837
 C312 C 0.60381 1.05256 0.76095
 C313 C 0.59298 1.07726 0.75055
 C314 C 0.56550 1.05208 0.71950
 C315 C 0.57682 1.02780 0.73054
 N316 N 0.59594 1.02842 0.75062
 H317 H 0.60154 0.96390 0.81034
 H318 H 0.58242 0.96305 0.72592
 H319 H 0.55623 0.92115 0.73298
 H320 H 0.57629 0.92216 0.81878
 H321 H 0.61967 1.05283 0.77618
 H322 H 0.60020 1.09634 0.75814
 H323 H 0.55115 1.05142 0.70278
 H324 H 0.57123 1.00857 0.72215
 C325 C 0.66428 1.01418 0.84082
 C326 C 0.67055 0.97028 0.68553
 C327 C 0.57420 1.07707 0.72910
 C328 C 0.56429 0.91854 0.77649
 C329 C 0.03474 0.21617 -0.15378
 H330 H 0.04865 0.22577 -0.14020
 C331 C 0.04459 0.19441 -0.16975
 H332 H 0.06582 0.18714 -0.16786
 C333 C -0.00972 0.21334 -0.17255
 H334 H -0.03086 0.22073 -0.17369
 C335 C -0.00067 0.19155 -0.18900
 H336 H -0.01499 0.18218 -0.20248
 N337 N 0.00779 0.22478 -0.15485
 C338 C -0.03359 0.30253 -0.13505
 H339 H -0.03870 0.29875 -0.11366
 C340 C -0.04204 0.32710 -0.14764
 H341 H -0.05386 0.34225 -0.13599
 C342 C -0.01151 0.28756 -0.17626
 H343 H 0.00069 0.27217 -0.18714
 C344 C -0.01950 0.31192 -0.18965
 H345 H -0.01375 0.31518 -0.21100
 Zn346 Zn -0.00586 0.25198 -0.12993
 N347 N -0.01845 0.28349 -0.14937
 C348 C 0.03221 0.28769 -0.10852
 N349 N 0.02308 0.26179 -0.10647
 C350 C 0.03566 0.24281 -0.08972
 C351 C 0.05863 0.24952 -0.07459
 C352 C 0.05508 0.29518 -0.09387
 C353 C -0.05979 0.23483 -0.12344
 C354 C -0.08220 0.22245 -0.11081
 C355 C -0.05656 0.21893 -0.06891
 C356 C -0.03459 0.23139 -0.08243
 N357 N -0.03616 0.23810 -0.10954
 H358 H 0.02240 0.30241 -0.12222
 H359 H 0.02850 0.22216 -0.08890
 H360 H 0.06898 0.23415 -0.06188
 H361 H 0.06260 0.31564 -0.09622
 H362 H -0.06119 0.24157 -0.14458
 H363 H -0.09986 0.21882 -0.12333
 H364 H -0.05490 0.21465 -0.04712
 H365 H -0.01632 0.23553 -0.07115
 C366 C -0.03461 0.33210 -0.17511
 C367 C 0.02674 0.18174 -0.18749
 C368 C -0.08056 0.21293 -0.08333
 C369 C 0.06866 0.27587 -0.07702
 C370 C 0.46815 0.23643 0.15753
 H371 H 0.45593 0.25533 0.15727
 C372 C 0.45768 0.21313 0.17018
 H373 H 0.43742 0.21410 0.17986
 C374 C 0.50838 0.21129 0.14306
 H375 H 0.52762 0.21034 0.13159
 C376 C 0.49869 0.18757 0.15544
 H377 H 0.51057 0.16852 0.15360
 N378 N 0.49283 0.23495 0.14383
 C379 C 0.52140 0.31692 0.12677
 H380 H 0.52499 0.31510 0.10489
 C381 C 0.52803 0.34077 0.13999
 H382 H 0.53702 0.35726 0.12826
 C383 C 0.50610 0.29724 0.16884
 H384 H 0.49779 0.28008 0.17998
 C385 C 0.51236 0.32086 0.18291
 H386 H 0.50882 0.32185 0.20488
 Zn387 Zn 0.50243 0.26467 0.12085
 N388 N 0.51046 0.29586 0.14122
 C389 C 0.45945 0.29790 0.09825
 N390 N 0.47167 0.27247 0.09834
 C391 C 0.46032 0.25149 0.08505
 C392 C 0.43543 0.25560 0.07134
 C393 C 0.43456 0.30286 0.08489
 C394 C 0.55861 0.25388 0.11317
 C395 C 0.58271 0.24435 0.09996
 C396 C 0.55632 0.23684 0.05933
 C397 C 0.53272 0.24688 0.07322
 N398 N 0.53421 0.25459 0.09985
 H399 H 0.46837 0.31417 0.10941
 H400 H 0.47008 0.23131 0.08601
 H401 H 0.42617 0.23866 0.06139
 H402 H 0.42460 0.32298 0.08564
 H403 H 0.55915 0.26002 0.13438
 H404 H 0.60189 0.24326 0.11103
 H405 H 0.55469 0.22956 0.03857
 H406 H 0.51316 0.24764 0.06298
 C407 C 0.52315 0.34307 0.16832
 C408 C 0.47279 0.18831 0.16853
 C409 C 0.58166 0.23540 0.07282
 C410 C 0.42205 0.28141 0.07182
 C411 C 0.96383 0.72444 0.64231
 H412 H 0.94896 0.73821 0.63261
 C413 C 0.95468 0.70143 0.65645
 H414 H 0.93286 0.69751 0.65739
 C415 C 1.01027 0.71207 0.65231
 H416 H 1.03194 0.71595 0.65031
 C417 C 1.00198 0.68881 0.66673
 H418 H 1.01729 0.67496 0.67577
 N419 N 0.99128 0.72889 0.63971
 C420 C 1.02281 0.80875 0.61718
 H421 H 1.02030 0.80798 0.59519
 C422 C 1.03366 0.83169 0.62883
 H423 H 1.03889 0.84886 0.61575
 C424 C 1.01845 0.78739 0.66094
 H425 H 1.01257 0.76994 0.67325
 C426 C 1.03035 0.80958 0.67336
 H427 H 1.03356 0.80914 0.69530
 Zn428 Zn 1.00263 0.75667 0.61469
 N429 N 1.01521 0.78731 0.63326
 C430 C 0.96048 0.79285 0.59486
 N431 N 0.97194 0.76720 0.59248
 C432 C 0.96003 0.74823 0.57680
 C433 C 0.93570 0.75480 0.56282
 C434 C 0.93629 0.80025 0.58123
 C435 C 1.05748 0.74150 0.60716
 C436 C 1.08096 0.72934 0.59509
 C437 C 1.05468 0.72144 0.55450
 C438 C 1.03155 0.73385 0.56740
 N439 N 1.03317 0.74281 0.59364
 H440 H 0.96931 0.80736 0.60828
 H441 H 0.96876 0.72764 0.57610
 H442 H 0.92598 0.73942 0.55097
 H443 H 0.92703 0.82051 0.58387
 H444 H 1.05850 0.74940 0.62770
 H445 H 1.09995 0.72769 0.60644
 H446 H 1.05308 0.71350 0.53399
 H447 H 1.01233 0.73567 0.55663
 C448 C 1.03858 0.83188 0.65711
 C449 C 0.97396 0.68291 0.66802
 C450 C 1.07943 0.71850 0.56881
 C451 C 0.92347 0.78099 0.56540
 C452 C 0.53847 0.72936 0.34709
 H453 H 0.55325 0.74207 0.35654
 C454 C 0.54772 0.70691 0.33174
 H455 H 0.56963 0.70221 0.32975
 C456 C 0.49194 0.71932 0.33884
 H457 H 0.47021 0.72409 0.34214
 C458 C 0.50030 0.69669 0.32327
 H459 H 0.48498 0.68406 0.31448
 N460 N 0.51099 0.73483 0.35073
 C461 C 0.47272 0.81460 0.36819
 H462 H 0.47155 0.81360 0.39038
 C463 C 0.46169 0.83738 0.35428
 H464 H 0.45293 0.85418 0.36614
 C465 C 0.48705 0.79432 0.32625
 H466 H 0.49694 0.77741 0.31546
 C467 C 0.47621 0.81679 0.31145
 H468 H 0.47757 0.81659 0.28924
 Zn469 Zn 0.49820 0.76274 0.37465
 N470 N 0.48488 0.79353 0.35410
 C471 C 0.53446 0.79982 0.39813
 N472 N 0.52762 0.77313 0.39744
 C473 C 0.54237 0.75362 0.41172
 C474 C 0.56463 0.76071 0.42764
 C475 C 0.55629 0.80780 0.41403
 C476 C 0.44226 0.75785 0.39029
 C477 C 0.41973 0.74666 0.40393
 C478 C 0.45118 0.71669 0.42898
 C479 C 0.47316 0.72842 0.41481
 N480 N 0.46844 0.74876 0.39596
 H481 H 0.52338 0.81504 0.38606
 H482 H 0.53753 0.73240 0.41004
 H483 H 0.57643 0.74504 0.43865
 H484 H 0.56154 0.82909 0.41437
 H485 H 0.43862 0.77311 0.37446
 H486 H 0.39902 0.75377 0.39887
 H487 H 0.45514 0.70017 0.44355
 H488 H 0.49387 0.72073 0.41846
 C489 C 0.46248 0.83848 0.32539
 C490 C 0.52850 0.69022 0.31977
 C491 C 0.42413 0.72589 0.42353
 C492 C 0.57154 0.78811 0.42896
 C493 C 0.41465 -0.01506 0.27107
 H494 H 0.41491 0.00422 0.28157
 C495 C 0.42745 -0.03832 0.28274
 H496 H 0.43777 -0.03695 0.30217
 C497 C 0.39851 -0.04110 0.23437
 H498 H 0.38621 -0.04241 0.21623
 C499 C 0.41109 -0.06481 0.24527
 H500 H 0.40860 -0.08418 0.23535
 N501 N 0.39997 -0.01699 0.24769
 C502 C 0.38100 0.06512 0.21600
 H503 H 0.35881 0.06400 0.21526
 C504 C 0.39380 0.08842 0.20626
 H505 H 0.38146 0.10538 0.19801
 C506 C 0.42423 0.04420 0.22738
 H507 H 0.43594 0.02678 0.23541
 C508 C 0.43792 0.06722 0.21784
 H509 H 0.46019 0.06752 0.21853
 Zn510 Zn 0.37641 0.01296 0.23782
 N511 N 0.39626 0.04365 0.22632
 C512 C 0.35600 0.04651 0.28084
 N513 N 0.35503 0.02134 0.26958
 C514 C 0.34169 0.00074 0.28257
 C515 C 0.32906 0.00496 0.30823
 C516 C 0.34368 0.05158 0.30640
 C517 C 0.36726 0.00017 0.18360
 C518 C 0.35281 -0.00801 0.16085
 C519 C 0.31145 -0.00908 0.18917
 C520 C 0.32669 -0.00070 0.21142
 N521 N 0.35418 0.00327 0.20832
 H522 H 0.36727 0.06241 0.27060
 H523 H 0.34179 -0.01926 0.27345
 H524 H 0.31907 -0.01169 0.31878
 H525 H 0.34522 0.07147 0.31554
 H526 H 0.38912 0.00358 0.18175
 H527 H 0.36360 -0.01110 0.14143
 H528 H 0.28972 -0.01285 0.19188
 H529 H 0.31665 0.00217 0.23118
 C530 C 0.42258 0.08945 0.20686
 C531 C 0.42497 -0.06359 0.27012
 C532 C 0.32462 -0.01282 0.16359
 C533 C 0.33060 0.03048 0.32056
 C534 C 0.09096 1.03624 0.78266
 H535 H 0.09826 1.02242 0.79863
 C536 C 0.07701 1.06054 0.78987
 H537 H 0.07390 1.06539 0.81134
 C538 C 0.08681 1.04738 0.73539
 H539 H 0.09116 1.04251 0.71419
 C540 C 0.07246 1.07179 0.74170
 H541 H 0.06568 1.08550 0.72533
 N542 N 0.09664 1.03065 0.75583
 C543 C 0.12219 0.94988 0.72566
 H544 H 0.14403 0.95038 0.72958
 C545 C 0.11154 0.92714 0.71345
 H546 H 0.12520 0.90984 0.70864
 C547 C 0.07785 0.97175 0.72767
 H548 H 0.06492 0.98931 0.73320
 C549 C 0.06648 0.94976 0.71441
 H550 H 0.04472 0.95046 0.70979
 Zn551 Zn 0.12261 1.00180 0.74755
 N552 N 0.10532 0.97145 0.73281
 C553 C 0.14030 0.96536 0.78999
 N554 N 0.14145 0.99149 0.78033
 C555 C 0.15374 1.01098 0.79502
 C556 C 0.16440 1.00473 0.82095
 C557 C 0.15134 0.95810 0.81535
 C558 C 0.13716 1.01449 0.69405
 C559 C 0.15241 1.02510 0.67222
 C560 C 0.18885 1.03412 0.70365
 C561 C 0.17283 1.02322 0.72503
 N562 N 0.14720 1.01429 0.71994
 H563 H 0.12995 0.95019 0.77864
 H564 H 0.15400 1.03175 0.78722
 H565 H 0.17307 1.02065 0.83292
 H566 H 0.15005 0.93724 0.82278
 H567 H 0.11696 1.00682 0.69041
 H568 H 0.14389 1.02574 0.65181
 H569 H 0.20891 1.04194 0.70786
 H570 H 0.18067 1.02249 0.74563
 C571 C 0.08355 0.92728 0.70672
 C572 C 0.06864 1.07910 0.76926
 C573 C 0.17823 1.03565 0.67708
 C574 C 0.16252 0.97813 0.83164
 C575 C 0.59994 0.54742 0.28757
 H576 H 0.61207 0.53560 0.30212
 C577 C 0.58687 0.57177 0.29599
 H578 H 0.58937 0.57864 0.31680
 C579 C 0.58170 0.55317 0.24302
 H580 H 0.57954 0.54588 0.22244
 C581 C 0.56811 0.57761 0.25065
 H582 H 0.55575 0.58905 0.23586
 N583 N 0.59805 0.53906 0.26115
 C584 C 0.61218 0.46017 0.22250
 H585 H 0.63418 0.46115 0.21890
 C586 C 0.59788 0.43854 0.21220
 H587 H 0.60890 0.42285 0.20052
 C588 C 0.57100 0.47960 0.24203
 H589 H 0.56077 0.49568 0.25376
 C590 C 0.55589 0.45807 0.23230
 H591 H 0.53394 0.45754 0.23657
 Zn592 Zn 0.62046 0.50850 0.24920
 N593 N 0.59863 0.48019 0.23694
 C594 C 0.63773 0.46977 0.28932
 N595 N 0.64230 0.49517 0.27893
 C596 C 0.66067 0.51163 0.29069
 C597 C 0.67487 0.50288 0.31411
 C598 C 0.65140 0.46029 0.31273
 C599 C 0.63005 0.52536 0.19495
 C600 C 0.64495 0.53410 0.17194
 C601 C 0.68673 0.52866 0.19797
 C602 C 0.67099 0.52009 0.22058
 N603 N 0.64304 0.51923 0.21891
 H604 H 0.62286 0.45710 0.28000
 H605 H 0.66358 0.53194 0.28241
 H606 H 0.68896 0.51632 0.32370
 H607 H 0.64718 0.44029 0.32119
 H608 H 0.60808 0.52320 0.19355
 H609 H 0.63430 0.53939 0.15314
 H610 H 0.70887 0.52988 0.19963
 H611 H 0.68120 0.51424 0.23935
 C612 C 0.56938 0.43747 0.21685
 C613 C 0.57150 0.58755 0.27715
 C614 C 0.67356 0.53594 0.17344
 C615 C 0.66981 0.47715 0.32556
 C616 C 0.91435 0.48169 0.77736
 H617 H 0.91539 0.50086 0.78796
 C618 C 0.92814 0.45831 0.78775
 H619 H 0.93994 0.45951 0.80632
 C620 C 0.89613 0.45617 0.74136
 H621 H 0.88291 0.45508 0.72387
 C622 C 0.90957 0.43239 0.75101
 H623 H 0.90690 0.41329 0.74065
 N624 N 0.89861 0.48019 0.75463
 C625 C 0.88391 0.56249 0.72124
 H626 H 0.86172 0.56215 0.71977
 C627 C 0.89788 0.58509 0.71146
 H628 H 0.88642 0.60222 0.70238
 C629 C 0.92598 0.54031 0.73442
 H630 H 0.93681 0.52267 0.74312
 C631 C 0.94081 0.56262 0.72491
 H632 H 0.96305 0.56220 0.72644
 Zn633 Zn 0.87650 0.51109 0.74395
 N634 N 0.89802 0.54074 0.73251
 C635 C 0.85575 0.54650 0.78529
 N636 N 0.85431 0.52103 0.77478
 C637 C 0.83929 0.50153 0.78761
 C638 C 0.82523 0.50724 0.81227
 C639 C 0.84198 0.55306 0.80980
 C640 C 0.86916 0.49737 0.68982
 C641 C 0.85579 0.48779 0.66702
 C642 C 0.81304 0.48897 0.69330
 C643 C 0.82729 0.49857 0.71572
 N644 N 0.85499 0.50181 0.71376
 H645 H 0.86828 0.56153 0.77524
 H646 H 0.83895 0.48128 0.77910
 H647 H 0.81382 0.49147 0.82272
 H648 H 0.84376 0.57320 0.81832
 H649 H 0.89114 0.50031 0.68884
 H650 H 0.86746 0.48328 0.64838
 H651 H 0.79121 0.48538 0.69522
 H652 H 0.81638 0.50258 0.73484
 C653 C 0.92665 0.58517 0.71305
 C654 C 0.92562 0.43330 0.77455
 C655 C 0.82759 0.48290 0.66893
 C656 C 0.82696 0.53316 0.82372
 C657 C 0.27138 0.40322 -0.02022
 H658 H 0.28111 0.40415 -0.00047
 C659 C 0.28322 0.41603 -0.04316
 H660 H 0.30199 0.42705 -0.04105
 C661 C 0.23621 0.38608 -0.04767
 H662 H 0.21850 0.37363 -0.04966
 C663 C 0.24736 0.39852 -0.07105
 H664 H 0.23799 0.39584 -0.09080
 N665 N 0.24847 0.38833 -0.02292
 C666 C 0.21173 0.37373 0.05825
 H667 H 0.20876 0.35208 0.05627
 C668 C 0.20396 0.38681 0.08251
 H669 H 0.19476 0.37528 0.09921
 C670 C 0.22781 0.41508 0.03903
 H671 H 0.23725 0.42591 0.02206
 C672 C 0.22025 0.42904 0.06303
 H673 H 0.22389 0.45063 0.06452
 Zn674 Zn 0.23650 0.36657 0.00719
 N675 N 0.22401 0.38777 0.03740
 C676 C 0.27597 0.34494 0.04428
 N677 N 0.26715 0.34411 0.01796
 C678 C 0.28142 0.32934 -0.00140
 C679 C 0.30567 0.31470 0.00546
 C680 C 0.29990 0.33051 0.05201
 C681 C 0.18274 0.35939 -0.00901
 C682 C 0.16048 0.34587 -0.01937
 C683 C 0.18773 0.30362 -0.01744
 C684 C 0.20956 0.31798 -0.00710
 N685 N 0.20688 0.34548 -0.00378
 H686 H 0.26499 0.35740 0.05922
 H687 H 0.27433 0.32955 -0.02234
 H688 H 0.31722 0.30345 -0.01017
 H689 H 0.30702 0.33187 0.07288
 H690 H 0.18115 0.38121 -0.00594
 H691 H 0.14166 0.35730 -0.02436
 H692 H 0.19021 0.28188 -0.02086
 H693 H 0.22879 0.30728 -0.00242
 C694 C 0.20882 0.41462 0.08528
 C695 C 0.27145 0.41313 -0.06896
 C696 C 0.16314 0.31783 -0.02426
 C697 C 0.31503 0.31522 0.03250
 C698 C 0.78486 0.08119 1.02861
 H699 H 0.79463 0.07824 1.00869
 C700 C 0.79655 0.06895 1.05195
 H701 H 0.81527 0.05637 1.05003
 C702 C 0.74941 0.10241 1.05578
 H703 H 0.73149 0.11604 1.05734
 C704 C 0.76042 0.09062 1.07961
 H705 H 0.75085 0.09511 1.09935
 N706 N 0.76189 0.09780 1.03096
 C707 C 0.72360 0.10710 0.95095
 H708 H 0.72184 0.12916 0.95002
 C709 C 0.71263 0.09179 0.93018
 H710 H 0.70236 0.10207 0.91317
 C711 C 0.73884 0.06677 0.97451
 H712 H 0.74885 0.05716 0.99196
 C713 C 0.72821 0.05063 0.95404
 H714 H 0.73022 0.02859 0.95566
 Zn715 Zn 0.74966 0.11769 0.99961
 N716 N 0.73647 0.09448 0.97249
 C717 C 0.78840 0.13324 0.95886
 N718 N 0.77998 0.13697 0.98537
 C719 C 0.79403 0.15302 1.00245
 C720 C 0.81742 0.16629 0.99290
 C721 C 0.81160 0.14610 0.94851
 C722 C 0.69554 0.13023 1.01536
 C723 C 0.67262 0.14631 1.02341
 C724 C 0.70043 0.18615 1.01953
 C725 C 0.72279 0.16931 1.01118
 N726 N 0.72004 0.14184 1.00966
 H727 H 0.77745 0.11994 0.94576
 H728 H 0.78723 0.15520 1.02359
 H729 H 0.82859 0.17893 1.00660
 H730 H 0.81824 0.14283 0.92743
 H731 H 0.69393 0.10835 1.01389
 H732 H 0.65331 0.13676 1.02818
 H733 H 0.70301 0.20788 1.02152
 H734 H 0.74236 0.17817 1.00635
 C735 C 0.71472 0.06326 0.93174
 C736 C 0.78459 0.07423 1.07783
 C737 C 0.67496 0.17461 1.02561
 C738 C 0.82645 0.16262 0.96568
 C739 C 0.29526 0.59417 0.53778
 H740 H 0.31098 0.60249 0.52456
 C741 C 0.30276 0.58301 0.56316
 H742 H 0.32422 0.58243 0.56896
 C743 C 0.24827 0.58560 0.54717
 H744 H 0.22694 0.58749 0.54116
 C745 C 0.25488 0.57451 0.57297
 H746 H 0.23867 0.56748 0.58658
 N747 N 0.26835 0.59559 0.53033
 C748 C 0.25471 0.60040 0.44340
 H749 H 0.26807 0.61723 0.43960
 C750 C 0.24340 0.58744 0.42119
 H751 H 0.24852 0.59402 0.40046
 C752 C 0.22959 0.57293 0.47474
 H753 H 0.22360 0.56801 0.49564
 C754 C 0.21766 0.55950 0.45304
 H755 H 0.20261 0.54414 0.45728
 Zn756 Zn 0.25787 0.61608 0.49846
 N757 N 0.24738 0.59330 0.46957
 C758 C 0.31015 0.62454 0.47500
 N759 N 0.28755 0.63760 0.48628
 C760 C 0.28614 0.66525 0.48866
 C761 C 0.30827 0.68082 0.47987
 C762 C 0.33265 0.63930 0.46590
 C763 C 0.20448 0.63971 0.49178
 C764 C 0.18021 0.65347 0.50029
 C765 C 0.20287 0.66572 0.54192
 C766 C 0.22677 0.65181 0.53257
 N767 N 0.22695 0.63870 0.50815
 H768 H 0.31063 0.60256 0.47309
 H769 H 0.26791 0.67526 0.49742
 H770 H 0.30703 0.70282 0.48178
 H771 H 0.35052 0.62869 0.45696
 H772 H 0.20508 0.62923 0.47241
 H773 H 0.16216 0.65346 0.48754
 H774 H 0.20255 0.67532 0.56181
 H775 H 0.24487 0.65056 0.54523
 C776 C 0.22402 0.56738 0.42598
 C777 C 0.28235 0.57390 0.58142
 C778 C 0.17915 0.66604 0.52590
 C779 C 0.33188 0.66771 0.46855
 C780 C 0.77413 0.92063 0.47820
 H781 H 0.78346 0.92221 0.49809
 C782 C 0.78398 0.93597 0.45591
 H783 H 0.80078 0.94953 0.45875
 C784 C 0.74188 0.89998 0.44985
 H785 H 0.72615 0.88527 0.44727
 C786 C 0.75127 0.91467 0.42703
 H787 H 0.74262 0.91115 0.40710
 N788 N 0.75334 0.90316 0.47484
 C789 C 0.72088 0.88542 0.55721
 H790 H 0.72025 0.86346 0.55554
 C791 C 0.71255 0.89796 0.58160
 H792 H 0.70540 0.88569 0.59879
 C793 C 0.73103 0.92822 0.53683
 H794 H 0.73807 0.93991 0.51927
 C795 C 0.72262 0.94167 0.56087
 H796 H 0.72336 0.96369 0.56185
 Zn797 Zn 0.74258 0.88029 0.50461
 N798 N 0.73050 0.90051 0.53568
 C799 C 0.78394 0.85852 0.53965
 N800 N 0.77354 0.85753 0.51394
 C801 C 0.78589 0.84157 0.49431
 C802 C 0.80943 0.82542 0.50040
 C803 C 0.80718 0.84259 0.54664
 C804 C 0.68888 0.87390 0.48843
 C805 C 0.66550 0.86051 0.48062
 C806 C 0.69088 0.81743 0.48571
 C807 C 0.71392 0.83170 0.49335
 N808 N 0.71254 0.85946 0.49429
 H809 H 0.77459 0.87200 0.55474
 H810 H 0.77757 0.84160 0.47385
 H811 H 0.81926 0.81290 0.48465
 H812 H 0.81535 0.84371 0.56713
 H813 H 0.68835 0.89594 0.48954
 H814 H 0.64699 0.87232 0.47539
 H815 H 0.69216 0.79536 0.48478
 H816 H 0.73281 0.82061 0.49850
 C817 C 0.71374 0.92633 0.58365
 C818 C 0.77249 0.93303 0.42992
 C819 C 0.66629 0.83193 0.47941
 C820 C 0.82006 0.82573 0.52694
 C821 C -0.02013 0.27085 0.42306
 H822 H -0.00008 0.27980 0.42297
 C823 C -0.04193 0.28283 0.43825
 H824 H -0.03854 0.30086 0.45014
 C825 C -0.04948 0.23746 0.40635
 H826 H -0.05264 0.22038 0.39316
 C827 C -0.07186 0.24892 0.42102
 H828 H -0.09204 0.24049 0.41908
 N829 N -0.02426 0.24860 0.40750
 C830 C 0.05678 0.21179 0.38790
 H831 H 0.05445 0.20992 0.36598
 C832 C 0.08102 0.20225 0.40026
 H833 H 0.09742 0.19292 0.38785
 C834 C 0.03813 0.22610 0.43089
 H835 H 0.02127 0.23521 0.44273
 C836 C 0.06210 0.21681 0.44411
 H837 H 0.06375 0.21893 0.46611
 Zn838 Zn 0.00453 0.23597 0.38372
 N839 N 0.03608 0.22370 0.40320
 C840 C 0.03945 0.27525 0.36028
 N841 N 0.01343 0.26579 0.36049
 C842 C -0.00726 0.27929 0.34679
 C843 C -0.00224 0.30366 0.33260
 C844 C 0.04536 0.29941 0.34630
 C845 C -0.01130 0.18265 0.37845
 C846 C -0.02136 0.15978 0.36586
 C847 C -0.02259 0.18513 0.32291
 C848 C -0.01232 0.20755 0.33632
 N849 N -0.00743 0.20604 0.36373
 H850 H 0.05546 0.26475 0.37184
 H851 H -0.02789 0.27165 0.34780
 H852 H -0.01895 0.31478 0.32246
 H853 H 0.06594 0.30719 0.34695
 H854 H -0.00707 0.18203 0.40019
 H855 H -0.02504 0.14147 0.37789
 H856 H -0.02719 0.18661 0.30126
 H857 H -0.00878 0.22624 0.32497
 C858 C 0.08377 0.20468 0.42865
 C859 C -0.06820 0.27189 0.43718
 C860 C -0.02746 0.16112 0.33792
 C861 C 0.02425 0.31408 0.33279
 C862 C 1.02821 0.78073 0.08918
 H863 H 1.00843 0.79161 0.08869
 C864 C 1.05103 0.79160 0.07562
 H865 H 1.04879 0.81080 0.06446
 C866 C 1.05579 0.74324 0.10559
 H867 H 1.05782 0.72482 0.11791
 C868 C 1.07910 0.75341 0.09244
 H869 H 1.09883 0.74257 0.09438
 N870 N 1.03097 0.75695 0.10379
 C871 C 0.94967 0.72343 0.11676
 H872 H 0.95145 0.71878 0.13844
 C873 C 0.92590 0.71694 0.10304
 H874 H 0.90944 0.70701 0.11414
 C875 C 0.96915 0.74176 0.07581
 H876 H 0.98614 0.75131 0.06531
 C877 C 0.94562 0.73557 0.06122
 H878 H 0.94453 0.74040 0.03950
 Zn879 Zn 1.00064 0.74486 0.12509
 N880 N 0.97047 0.73603 0.10319
 C881 C 0.96305 0.78316 0.14922
 N882 N 0.98967 0.77344 0.14912
 C883 C 1.00900 0.78511 0.16461
 C884 C 1.00174 0.80741 0.18118
 C885 C 0.95489 0.80513 0.16562
 C886 C 1.01608 0.68996 0.12968
 C887 C 1.02532 0.66568 0.14226
 C888 C 1.02396 0.68862 0.18588
 C889 C 1.01457 0.71251 0.17246
 N890 N 1.01141 0.71285 0.14477
 H891 H 0.94810 0.77426 0.13625
 H892 H 1.03015 0.77736 0.16372
 H893 H 1.01725 0.81679 0.19324
 H894 H 0.93369 0.81282 0.16535
 H895 H 1.01307 0.69078 0.10774
 H896 H 1.02941 0.64768 0.13000
 H897 H 1.02708 0.68862 0.20783
 H898 H 1.01030 0.73082 0.18410
 C899 C 0.92350 0.72350 0.07508
 C900 C 1.07682 0.77786 0.07732
 C901 C 1.02997 0.66509 0.17056
 C902 C 0.97434 0.81743 0.18183
 C903 C 0.53611 0.28565 0.58381
 H904 H 0.51624 0.29629 0.58251
 C905 C 0.55877 0.29544 0.56913
 H906 H 0.55636 0.31368 0.55646
 C907 C 0.56395 0.24981 0.60314
 H908 H 0.56617 0.23253 0.61700
 C909 C 0.58708 0.25884 0.58878
 H910 H 0.60685 0.24824 0.59142
 N911 N 0.53906 0.26317 0.60037
 C912 C 0.45784 0.23047 0.61445
 H913 H 0.45879 0.22835 0.63655
 C914 C 0.43474 0.22216 0.60077
 H915 H 0.41794 0.21332 0.61236
 C916 C 0.47893 0.24407 0.57239
 H917 H 0.49634 0.25242 0.56148
 C918 C 0.45605 0.23605 0.55783
 H919 H 0.45584 0.23830 0.53569
 Zn920 Zn 0.50848 0.25242 0.62204
 N921 N 0.47917 0.24150 0.60025
 C922 C 0.47077 0.29400 0.63897
 N923 N 0.49641 0.28276 0.64327
 C924 C 0.51399 0.29414 0.66093
 C925 C 0.50578 0.31761 0.67538
 C926 C 0.46186 0.31746 0.65278
 C927 C 0.52532 0.19855 0.63059
 C928 C 0.53424 0.17513 0.64487
 C929 C 0.52832 0.19980 0.68730
 C930 C 0.51950 0.22287 0.67216
 N931 N 0.51879 0.22196 0.64427
 H932 H 0.45734 0.28523 0.62432
 H933 H 0.53448 0.28516 0.66352
 H934 H 0.51987 0.32668 0.68930
 H935 H 0.44152 0.32640 0.64898
 H936 H 0.52410 0.19832 0.60845
 H937 H 0.53998 0.15677 0.63373
 H938 H 0.52947 0.20076 0.70944
 H939 H 0.51356 0.24146 0.68267
 C940 C 0.43347 0.22539 0.57220
 C941 C 0.58459 0.28189 0.57155
 C942 C 0.53631 0.17585 0.67347
 C943 C 0.47954 0.32955 0.67102
 C944 C 0.46781 0.77925 0.90465
 H945 H 0.48760 0.78859 0.90585
 C946 C 0.44460 0.79145 0.91749
 H947 H 0.44650 0.81014 0.92878
 C948 C 0.44062 0.74449 0.88705
 H949 H 0.43887 0.72674 0.87445
 C950 C 0.41696 0.75604 0.89948
 H951 H 0.39721 0.74696 0.89663
 N952 N 0.46541 0.75626 0.88968
 C953 C 0.54734 0.71799 0.87800
 H954 H 0.54616 0.71462 0.85617
 C955 C 0.57072 0.70907 0.89218
 H956 H 0.58758 0.69868 0.88127
 C957 C 0.52675 0.73568 0.91884
 H958 H 0.50950 0.74596 0.92910
 C959 C 0.54988 0.72706 0.93387
 H960 H 0.55048 0.73083 0.95569
 Zn961 Zn 0.49625 0.74277 0.86891
 N962 N 0.52609 0.73129 0.89133
 C963 C 0.53368 0.78004 0.84640
 N964 N 0.50745 0.77132 0.84508
 C965 C 0.48855 0.78419 0.82859
 C966 C 0.49580 0.80689 0.81263
 C967 C 0.54181 0.80241 0.83070
 C968 C 0.48048 0.68940 0.86457
 C969 C 0.47272 0.66557 0.85208
 C970 C 0.47770 0.68805 0.80786
 C971 C 0.48532 0.71161 0.82126
 N972 N 0.48628 0.71188 0.84915
 H973 H 0.54822 0.77021 0.86018
 H974 H 0.46766 0.77721 0.82838
 H975 H 0.48052 0.81736 0.79998
 H976 H 0.56258 0.80949 0.83242
 H977 H 0.48157 0.69020 0.88670
 H978 H 0.46757 0.64801 0.86465
 H979 H 0.47671 0.68801 0.78567
 H980 H 0.49033 0.72962 0.80941
 C981 C 0.57213 0.71358 0.92040
 C982 C 0.41884 0.77994 0.91454
 C983 C 0.47146 0.66467 0.82339
 C984 C 0.52277 0.81609 0.81361
 C985 C 0.42513 -0.12564 0.31857
 C986 C 0.45091 -0.13867 0.31091
 C987 C 0.46603 -0.12752 0.28876
 C988 C 0.45740 -0.10321 0.27590
 C989 C 0.43341 -0.08912 0.28463
 C990 C 0.41682 -0.10035 0.30584
 C991 C 0.40638 -0.13808 0.33705
 C992 C 0.38154 -0.12488 0.34462
 C993 C 0.37433 -0.09944 0.33341
 C994 C 0.39154 -0.08737 0.31395
 H995 H 0.41023 -0.15844 0.34526
 H996 H 0.36764 -0.13462 0.35902
 H997 H 0.35498 -0.08932 0.33930
 H998 H 0.38459 -0.06803 0.30503
 H999 H 0.48558 -0.13681 0.28217
 H1000 H 0.46988 -0.09501 0.25929
 C1001 C 0.97598 0.37789 0.80260
 C1002 C 0.95684 0.35825 0.81144
 C1003 C 0.92862 0.36361 0.80781
 C1004 C 0.91911 0.38787 0.79555
 C1005 C 0.93749 0.40766 0.78663
 C1006 C 0.96623 0.40270 0.78983
 C1007 C 1.00456 0.37364 0.80654
 C1008 C 1.02315 0.39294 0.79735
 C1009 C 1.01369 0.41677 0.78415
 C1010 C 0.98552 0.42169 0.78036
 H1011 H 1.01281 0.35549 0.81682
 H1012 H 1.04502 0.38935 0.80041
 H1013 H 1.02825 0.43156 0.77687
 H1014 H 0.97908 0.44038 0.76985
 H1015 H 0.91380 0.34881 0.81455
 H1016 H 0.89710 0.39141 0.79328
 C1017 C 0.06006 1.15635 0.78012
 C1018 C 0.03627 1.15693 0.79747
 C1019 C 0.02266 1.13268 0.80296
 C1020 C 0.03296 1.10788 0.79282
 C1021 C 0.05725 1.10647 0.77689
 C1022 C 0.07104 1.13086 0.77027
 C1023 C 0.07325 1.18057 0.77244
 C1024 C 0.09737 1.17966 0.75649
 C1025 C 0.10884 1.15471 0.74798
 C1026 C 0.09595 1.13051 0.75481
 H1027 H 0.06495 1.20040 0.77851
 H1028 H 0.10733 1.19839 0.75087
 H1029 H 0.12780 1.15410 0.73593
 H1030 H 0.10586 1.11167 0.74796
 H1031 H 0.00449 1.13276 0.81620
 H1032 H 0.02229 1.08944 0.79811
 C1033 C 0.55690 0.66472 0.28324
 C1034 C 0.53793 0.66481 0.30572
 C1035 C 0.52927 0.63994 0.31676
 C1036 C 0.53988 0.61521 0.30674
 C1037 C 0.55950 0.61451 0.28533
 C1038 C 0.56818 0.63940 0.27328
 C1039 C 0.56490 0.68928 0.27041
 C1040 C 0.58439 0.68899 0.24905
 C1041 C 0.59626 0.66437 0.24008
 C1042 C 0.58836 0.63977 0.25204
 H1043 H 0.55606 0.70885 0.27662
 H1044 H 0.59041 0.70799 0.23948
 H1045 H 0.61162 0.66431 0.22371
 H1046 H 0.59834 0.62121 0.24454
 H1047 H 0.51483 0.63965 0.33397
 H1048 H 0.53313 0.59638 0.31616
 C1049 C 0.52141 0.39457 0.17460
 C1050 C 0.53111 0.36802 0.18266
 C1051 C 0.55094 0.36515 0.20311
 C1052 C 0.56230 0.38795 0.21451
 C1053 C 0.55428 0.41439 0.20582
 C1054 C 0.53349 0.41795 0.18581
 C1055 C 0.49998 0.39837 0.15554
 C1056 C 0.49148 0.42451 0.14682
 C1057 C 0.50413 0.44728 0.15681
 C1058 C 0.52497 0.44415 0.17606
 H1059 H 0.48947 0.38125 0.14739
 H1060 H 0.47510 0.42710 0.13211
 H1061 H 0.49768 0.46750 0.14969
 H1062 H 0.53432 0.46242 0.18302
 H1063 H 0.55856 0.34504 0.20951
 H1064 H 0.57813 0.38492 0.22978
 C1065 C 0.07604 0.86703 0.65825
 C1066 C 0.05176 0.85561 0.66955
 C1067 C 0.03864 0.86808 0.69221
 C1068 C 0.04895 0.89143 0.70361
 C1069 C 0.07227 0.90369 0.69227
 C1070 C 0.08533 0.89208 0.66861
 C1071 C 0.09161 0.85397 0.63711
 C1072 C 0.11400 0.86653 0.62467
 C1073 C 0.12139 0.89221 0.63302
 C1074 C 0.10725 0.90495 0.65473
 H1075 H 0.08687 0.83386 0.63015
 H1076 H 0.12548 0.85640 0.60826
 H1077 H 0.13836 0.90219 0.62284
 H1078 H 0.11354 0.92504 0.66027
 H1079 H 0.02009 0.85976 0.70111
 H1080 H 0.03869 0.89991 0.72166
 C1081 C 0.97023 0.63141 0.66693
 C1082 C 0.96466 0.65679 0.67996
 C1083 C 0.94798 0.65774 0.70366
 C1084 C 0.93660 0.63416 0.71449
 C1085 C 0.94152 0.60888 0.70194
 C1086 C 0.95856 0.60725 0.67802
 C1087 C 0.98625 0.62965 0.64247
 C1088 C 0.99099 0.60471 0.62953
 C1089 C 0.97960 0.58115 0.64036
 C1090 C 0.96337 0.58233 0.66423
 H1091 H 0.99503 0.64747 0.63294
 H1092 H 1.00336 0.60369 0.61085
 H1093 H 0.98315 0.56190 0.63005
 H1094 H 0.95447 0.56361 0.67151
 H1095 H 0.94333 0.67704 0.71360
 H1096 H 0.92339 0.63571 0.73260
 C1097 C 0.44696 0.14600 0.15827
 C1098 C 0.46014 0.16260 0.17727
 C1099 C 0.46157 0.15449 0.20486
 C1100 C 0.44989 0.13034 0.21395
 C1101 C 0.43641 0.11373 0.19569
 C1102 C 0.43522 0.12123 0.16750
 C1103 C 0.44513 0.15357 0.13025
 C1104 C 0.43248 0.13685 0.11170
 C1105 C 0.42153 0.11235 0.12060
 C1106 C 0.42289 0.10449 0.14818
 H1107 H 0.45343 0.17241 0.12243
 H1108 H 0.43128 0.14288 0.09028
 H1109 H 0.41194 0.09934 0.10606
 H1110 H 0.41442 0.08512 0.15412
 H1111 H 0.47169 0.16704 0.21948
 H1112 H 0.45090 0.12481 0.23553
 C1113 C 0.31180 0.41629 -0.13701
 C1114 C 0.31049 0.44487 -0.14208
 C1115 C 0.29648 0.46208 -0.12340
 C1116 C 0.28418 0.45150 -0.09967
 C1117 C 0.28541 0.42340 -0.09406
 C1118 C 0.29940 0.40550 -0.11267
 C1119 C 0.32497 0.39815 -0.15576
 C1120 C 0.32651 0.37014 -0.15028
 C1121 C 0.31499 0.35966 -0.12616
 C1122 C 0.30156 0.37707 -0.10748
 H1123 H 0.33402 0.40538 -0.17484
 H1124 H 0.33674 0.35650 -0.16480
 H1125 H 0.31641 0.33792 -0.12195
 H1126 H 0.29302 0.36805 -0.08895
 H1127 H 0.29541 0.48395 -0.12705
 H1128 H 0.27351 0.46532 -0.08558
 C1129 C 0.78068 0.97037 0.36051
 C1130 C 0.80916 0.96464 0.35533
 C1131 C 0.82483 0.95078 0.37538
 C1132 C 0.81277 0.94183 0.39982
 C1133 C 0.78459 0.94658 0.40526
 C1134 C 0.76846 0.96181 0.38594
 C1135 C 0.76385 0.98378 0.34077
 C1136 C 0.73607 0.98989 0.34648
 C1137 C 0.72451 0.98272 0.37178
 C1138 C 0.74045 0.96881 0.39138
 H1139 H 0.77185 0.98954 0.32076
 H1140 H 0.72348 1.00035 0.33121
 H1141 H 0.70301 0.98782 0.37620
 H1142 H 0.73070 0.96384 0.41086
 H1143 H 0.84663 0.94636 0.37184
 H1144 H 0.82543 0.93021 0.41424
 C1145 C 0.83526 0.06477 1.13696
 C1146 C 0.82214 0.04378 1.15251
 C1147 C 0.79633 0.03522 1.14395
 C1148 C 0.78466 0.04521 1.11974
 C1149 C 0.79820 0.06422 1.10320
 C1150 C 0.82343 0.07458 1.11190
 C1151 C 0.85863 0.07787 1.14676
 C1152 C 0.87117 0.09830 1.13138
 C1153 C 0.86033 0.10685 1.10636
 C1154 C 0.83651 0.09546 1.09682
 H1155 H 0.86698 0.07320 1.16675
 H1156 H 0.88915 0.10788 1.13914
 H1157 H 0.87002 0.12291 1.09462
 H1158 H 0.82820 0.10364 1.07784
 H1159 H 0.78559 0.01955 1.15529
 H1160 H 0.76505 0.03763 1.11356
 C1161 C 0.31486 0.56971 0.65248
 C1162 C 0.31019 0.54197 0.65937
 C1163 C 0.29504 0.52629 0.64159
 C1164 C 0.28515 0.53728 0.61698
 C1165 C 0.28998 0.56437 0.60941
 C1166 C 0.30395 0.58117 0.62771
 C1167 C 0.33081 0.58617 0.66916
 C1168 C 0.33445 0.61358 0.66252
 C1169 C 0.32249 0.62512 0.63915
 C1170 C 0.30740 0.60917 0.62185
 H1171 H 0.34083 0.57813 0.68734
 H1172 H 0.34653 0.62597 0.67564
 H1173 H 0.32509 0.64651 0.63429
 H1174 H 0.29835 0.61902 0.60398
 H1175 H 0.29141 0.50508 0.64653
 H1176 H 0.27445 0.52425 0.60326
 C1177 C 0.17608 0.56249 0.36492
 C1178 C 0.18123 0.53477 0.35787
 C1179 C 0.20014 0.51869 0.37301
 C1180 C 0.21363 0.52947 0.39519
 C1181 C 0.20863 0.55665 0.40279
 C1182 C 0.18951 0.57338 0.38786
 C1183 C 0.15804 0.57975 0.34950
 C1184 C 0.15257 0.60673 0.35713
 C1185 C 0.16491 0.61707 0.38014
 C1186 C 0.18320 0.60066 0.39542
 H1187 H 0.14816 0.57268 0.33133
 H1188 H 0.13861 0.61966 0.34518
 H1189 H 0.16038 0.63796 0.38612
 H1190 H 0.19216 0.60953 0.41324
 H1191 H 0.20420 0.49749 0.36780
 H1192 H 0.22819 0.51655 0.40648
 C1193 C 0.66804 0.01702 0.89186
 C1194 C 0.67849 0.02160 0.86465
 C1195 C 0.70260 0.03650 0.86129
 C1196 C 0.71435 0.04908 0.88342
 C1197 C 0.70278 0.04701 0.90981
 C1198 C 0.67971 0.03056 0.91439
 C1199 C 0.64710 -0.00173 0.89743
 C1200 C 0.63623 -0.00504 0.92389
 C1201 C 0.64619 0.00985 0.94542
 C1202 C 0.66778 0.02743 0.94085
 H1203 H 0.63930 -0.01437 0.88153
 H1204 H 0.62000 -0.01925 0.92771
 H1205 H 0.63746 0.00743 0.96587
 H1206 H 0.67508 0.03831 0.95827
 H1207 H 0.71137 0.04042 0.84108
 H1208 H 0.73216 0.06142 0.87973
 C1209 C 0.71056 0.94739 0.65900
 C1210 C 0.68431 0.96113 0.65965
 C1211 C 0.66989 0.96514 0.63514
 C1212 C 0.68029 0.95464 0.61051
 C1213 C 0.70536 0.93968 0.60965
 C1214 C 0.72104 0.93637 0.63382
 C1215 C 0.72684 0.94473 0.68268
 C1216 C 0.75250 0.93098 0.68174
 C1217 C 0.76254 0.91988 0.65724
 C1218 C 0.74711 0.92261 0.63343
 H1219 H 0.72013 0.95354 0.70200
 H1220 H 0.76473 0.92906 0.70007
 H1221 H 0.78253 0.90934 0.65662
 H1222 H 0.75590 0.91415 0.61470
 H1223 H 0.64988 0.97567 0.63524
 H1224 H 0.66818 0.95735 0.59214
 C1225 C 0.20503 0.43141 0.16172
 C1226 C 0.18225 0.45035 0.16175
 C1227 C 0.17094 0.45915 0.13673
 C1228 C 0.18064 0.44825 0.11200
 C1229 C 0.20195 0.42823 0.11157
 C1230 C 0.21497 0.42026 0.13643
 C1231 C 0.21837 0.42354 0.18627
 C1232 C 0.24079 0.40493 0.18592
 C1233 C 0.25049 0.39402 0.16122
 C1234 C 0.23786 0.40164 0.13665
 H1235 H 0.21186 0.43196 0.20584
 H1236 H 0.25082 0.39910 0.20490
 H1237 H 0.26804 0.37975 0.16107
 H1238 H 0.24644 0.39310 0.11787
 H1239 H 0.15361 0.47373 0.13645
 H1240 H 0.17065 0.45463 0.09313
 C1241 C -0.13508 0.28701 0.47838
 C1242 C -0.14050 0.31440 0.46976
 C1243 C -0.12148 0.32741 0.45262
 C1244 C -0.09786 0.31347 0.44303
 C1245 C -0.09235 0.28611 0.45043
 C1246 C -0.11068 0.27279 0.46882
 C1247 C -0.15310 0.27363 0.49673
 C1248 C -0.14723 0.24687 0.50549
 C1249 C -0.12327 0.23309 0.49644
 C1250 C -0.10503 0.24589 0.47842
 H1251 H -0.17166 0.28378 0.50469
 H1252 H -0.16122 0.23686 0.51960
 H1253 H -0.11867 0.21244 0.50359
 H1254 H -0.08634 0.23466 0.47246
 H1255 H -0.12531 0.34840 0.44605
 H1256 H -0.08411 0.32397 0.42902
 C1257 C 0.35146 0.82261 0.91926
 C1258 C 0.34501 0.81904 0.94755
 C1259 C 0.36254 0.80276 0.96403
 C1260 C 0.38652 0.79042 0.95307
 C1261 C 0.39353 0.79393 0.92529
 C1262 C 0.37601 0.81007 0.90808
 C1263 C 0.33388 0.83813 0.90174
 C1264 C 0.34065 0.84167 0.87401
 C1265 C 0.36490 0.82982 0.86320
 C1266 C 0.38247 0.81414 0.87997
 H1267 H 0.31472 0.84748 0.90922
 H1268 H 0.32701 0.85367 0.86084
 H1269 H 0.37007 0.83273 0.84168
 H1270 H 0.40110 0.80530 0.87074
 H1271 H 0.35782 0.79995 0.98569
 H1272 H 0.39973 0.77801 0.96633
 C1273 C 1.12916 0.80643 0.02559
 C1274 C 1.14910 0.81556 0.04403
 C1275 C 1.14563 0.81062 0.07222
 C1276 C 1.12232 0.79794 0.08246
 C1277 C 1.10172 0.78987 0.06484
 C1278 C 1.10521 0.79360 0.03611
 C1279 C 1.13277 0.80926 -0.00313
 C1280 C 1.11306 0.80013 -0.02098
 C1281 C 1.08961 0.78776 -0.01068
 C1282 C 1.08570 0.78433 0.01756
 H1283 H 1.15099 0.81813 -0.01207
 H1284 H 1.11611 0.80246 -0.04294
 H1285 H 1.07449 0.78054 -0.02466
 H1286 H 1.06748 0.77408 0.02464
 H1287 H 1.16072 0.81737 0.08652
 H1288 H 1.11999 0.79501 0.10445
 C1289 C 0.63599 0.30838 0.51757
 C1290 C 0.65673 0.31727 0.53519
 C1291 C 0.65399 0.31292 0.56354
 C1292 C 0.63072 0.30100 0.57473
 C1293 C 0.60941 0.29298 0.55795
 C1294 C 0.61213 0.29610 0.52905
 C1295 C 0.63873 0.31088 0.48875
 C1296 C 0.61834 0.30175 0.47167
 C1297 C 0.59509 0.28972 0.48287
 C1298 C 0.59199 0.28672 0.51125
 H1299 H 0.65676 0.31951 0.47916
 H1300 H 0.62073 0.30379 0.44961
 H1301 H 0.57947 0.28244 0.46947
 H1302 H 0.57391 0.27669 0.51902
 H1303 H 0.66969 0.31957 0.57723
 H1304 H 0.62900 0.29862 0.59684
 C1305 C 0.35881 0.21219 0.55420
 C1306 C 0.36333 0.19016 0.53588
 C1307 C 0.39035 0.18237 0.52797
 C1308 C 0.41282 0.19514 0.53871
 C1309 C 0.40899 0.21618 0.55764
 C1310 C 0.38185 0.22571 0.56463
 C1311 C 0.33202 0.22057 0.56315
 C1312 C 0.32798 0.24261 0.58072
 C1313 C 0.35043 0.25660 0.58986
 C1314 C 0.37713 0.24829 0.58198
 H1315 H 0.31396 0.21021 0.55688
 H1316 H 0.30731 0.24892 0.58723
 H1317 H 0.34714 0.27387 0.60327
 H1318 H 0.39400 0.25980 0.58944
 H1319 H 0.39408 0.16558 0.51400
 H1320 H 0.43342 0.18765 0.53318
 C1321 C 0.84772 0.71484 0.05795
 C1322 C 0.85086 0.69447 0.03764
 C1323 C 0.87738 0.68644 0.02833
 C1324 C 0.90068 0.69730 0.03957
 C1325 C 0.89821 0.71651 0.06050
 C1326 C 0.87161 0.72629 0.06911
 C1327 C 0.82146 0.72350 0.06812
 C1328 C 0.81877 0.74378 0.08786
 C1329 C 0.84205 0.75570 0.09795
 C1330 C 0.86825 0.74708 0.08876
 H1331 H 0.80280 0.71472 0.06107
 H1332 H 0.79849 0.75034 0.09532
 H1333 H 0.83980 0.77160 0.11310
 H1334 H 0.88580 0.75698 0.09703
 H1335 H 0.88006 0.67087 0.01285
 H1336 H 0.92086 0.68965 0.03279
 C1337 C 0.62262 0.67262 0.96606
 C1338 C 0.64748 0.68539 0.95845
 C1339 C 0.64672 0.70735 0.93976
 C1340 C 0.62196 0.71666 0.92838
 C1341 C 0.59716 0.70433 0.93533
 C1342 C 0.59724 0.68222 0.95443
 C1343 C 0.62255 0.64982 0.98414
 C1344 C 0.59807 0.63712 0.99095
 C1345 C 0.57331 0.64655 0.97966
 C1346 C 0.57281 0.66874 0.96143
 H1347 H 0.64133 0.64139 0.99298
 H1348 H 0.59834 0.61971 1.00489
 H1349 H 0.55441 0.63645 0.98487
 H1350 H 0.55320 0.67500 0.95275
 H1351 H 0.66558 0.71708 0.93359
 H1352 H 0.62219 0.73339 0.91360
 C1353 C 0.13622 0.16167 0.47015
 C1354 C 0.16062 0.17540 0.46287
 C1355 C 0.15905 0.19823 0.44530
 C1356 C 0.13388 0.20766 0.43494
 C1357 C 0.10948 0.19458 0.44182
 C1358 C 0.11042 0.17140 0.45959
 C1359 C 0.13700 0.13787 0.48689
 C1360 C 0.11293 0.12434 0.49346
 C1361 C 0.08776 0.13392 0.48323
 C1362 C 0.08643 0.15708 0.46629
 H1363 H 0.15613 0.12927 0.49481
 H1364 H 0.11387 0.10617 0.50637
 H1365 H 0.06919 0.12318 0.48822
 H1366 H 0.06651 0.16342 0.45835
 H1367 H 0.17756 0.20870 0.43939
 H1368 H 0.13343 0.22524 0.42117
 C1369 C 0.58437 0.11736 0.69804
 C1370 C 0.56574 0.10284 0.71502
 C1371 C 0.53859 0.11291 0.71862
 C1372 C 0.52960 0.13705 0.70561
 C1373 C 0.54751 0.15167 0.68857
 C1374 C 0.57526 0.14217 0.68500
 C1375 C 0.61176 0.10755 0.69337
 C1376 C 0.62994 0.12229 0.67698
 C1377 C 0.62127 0.14696 0.66491
 C1378 C 0.59423 0.15690 0.66881
 H1379 H 0.61937 0.08841 0.70219
 H1380 H 0.65090 0.11457 0.67368
 H1381 H 0.63555 0.15842 0.65238
 H1382 H 0.58843 0.17624 0.65919
 H1383 H 0.52423 0.10192 0.73153
 H1384 H 0.50834 0.14412 0.70842
 C1385 C 1.07757 0.60400 0.18978
 C1386 C 1.06055 0.59095 0.20950
 C1387 C 1.03473 0.60269 0.21648
 C1388 C 1.02529 0.62684 0.20383
 C1389 C 1.04148 0.63998 0.18395
 C1390 C 1.06807 0.62885 0.17704
 C1391 C 1.10412 0.59316 0.18286
 C1392 C 1.12092 0.60656 0.16392
 C1393 C 1.11182 0.63103 0.15175
 C1394 C 1.08575 0.64223 0.15828
 H1395 H 1.11220 0.57441 0.19213
 H1396 H 1.14123 0.59802 0.15884
 H1397 H 1.12509 0.64150 0.13730
 H1398 H 1.07982 0.66158 0.14876
 H1399 H 1.02175 0.59300 0.23180
 H1400 H 1.00504 0.63525 0.20941
 C1401 C 0.93453 0.86466 0.23122
 C1402 C 0.94332 0.89023 0.22104
 C1403 C 0.96463 0.89099 0.20132
 C1404 C 0.97575 0.86698 0.19005
 C1405 C 0.96583 0.84157 0.19818
 C1406 C 0.94581 0.84013 0.21962
 C1407 C 0.91477 0.86294 0.25275
 C1408 C 0.90613 0.83766 0.26235
 C1409 C 0.91707 0.81368 0.25089
 C1410 C 0.93679 0.81480 0.22978
 H1411 H 0.90613 0.88105 0.26255
 H1412 H 0.89098 0.83665 0.27887
 H1413 H 0.91038 0.79411 0.25853
 H1414 H 0.94514 0.79569 0.22176
 H1415 H 0.97163 0.91040 0.19349
 H1416 H 0.99111 0.86831 0.17373
 C1417 C 0.45349 0.40279 0.68336
 C1418 C 0.44468 0.40031 0.71116
 C1419 C 0.44963 0.37571 0.72551
 C1420 C 0.46239 0.35335 0.71257
 C1421 C 0.47036 0.35496 0.68487
 C1422 C 0.46663 0.37995 0.67018
 C1423 C 0.44881 0.42720 0.66809
 C1424 C 0.45754 0.42922 0.64074
 C1425 C 0.47089 0.40706 0.62804
 C1426 C 0.47540 0.38260 0.64252
 H1427 H 0.43836 0.44487 0.67705
 H1428 H 0.45391 0.44809 0.62933
 H1429 H 0.47770 0.40880 0.60683
 H1430 H 0.48589 0.36587 0.63191
 H1431 H 0.44283 0.37359 0.74672
 H1432 H 0.46503 0.33428 0.72391
 C1433 C 0.46248 0.58993 0.80493
 C1434 C 0.43732 0.59263 0.79070
 C1435 C 0.42582 0.61864 0.78502
 C1436 C 0.43798 0.64187 0.79463
 C1437 C 0.46206 0.63974 0.81008
 C1438 C 0.47512 0.61370 0.81448
 C1439 C 0.47540 0.56408 0.80977
 C1440 C 0.50037 0.56174 0.82348
 C1441 C 0.51297 0.58499 0.83244
 C1442 C 0.50061 0.61076 0.82794
 H1443 H 0.46650 0.54555 0.80275
 H1444 H 0.51011 0.54180 0.82698
 H1445 H 0.53249 0.58305 0.84282
 H1446 H 0.51137 0.62831 0.83475
 H1447 H 0.40664 0.62090 0.77402
 H1448 H 0.42782 0.66162 0.79102
 C1449 C -0.08107 0.11447 0.30935
 C1450 C -0.06372 0.09176 0.30179
 C1451 C -0.03537 0.09227 0.30653
 C1452 C -0.02393 0.11502 0.31804
 C1453 C -0.04050 0.13792 0.32499
 C1454 C -0.06931 0.13782 0.32084
 C1455 C -0.10997 0.11422 0.30640
 C1456 C -0.12672 0.13667 0.31398
 C1457 C -0.11516 0.15962 0.32486
 C1458 C -0.08676 0.16024 0.32843
 H1459 H -0.11996 0.09664 0.29859
 H1460 H -0.14883 0.13618 0.31155
 H1461 H -0.12829 0.17694 0.33079
 H1462 H -0.07868 0.17833 0.33733
 H1463 H -0.02197 0.07497 0.30104
 H1464 H -0.00193 0.11482 0.32149
 C1465 C 0.03164 0.39104 0.32430
 C1466 C 0.04877 0.39151 0.30045
 C1467 C 0.05484 0.36725 0.28641
 C1468 C 0.04561 0.34242 0.29654
 C1469 C 0.02985 0.34122 0.32083
 C1470 C 0.02223 0.36565 0.33469
 C1471 C 0.02391 0.41527 0.33819
 C1472 C 0.00768 0.41444 0.36207
 C1473 C -0.00106 0.38958 0.37256
 C1474 C 0.00614 0.36536 0.35912
 H1475 H 0.03017 0.43501 0.33063
 H1476 H 0.00191 0.43318 0.37253
 H1477 H -0.01352 0.38906 0.39119
 H1478 H -0.00104 0.34651 0.36804
 H1479 H 0.06801 0.36735 0.26822
 H1480 H 0.05167 0.32383 0.28590
 C1481 C 0.56448 0.86707 0.77171
 C1482 C 0.55175 0.89178 0.78119
 C1483 C 0.52813 0.89087 0.79805
 C1484 C 0.51779 0.86601 0.80674
 C1485 C 0.53085 0.84132 0.79894
 C1486 C 0.55368 0.84165 0.78039
 C1487 C 0.58829 0.86697 0.75461
 C1488 C 0.60047 0.84247 0.74546
 C1489 C 0.58937 0.81769 0.75325
 C1490 C 0.56623 0.81717 0.77058
 H1491 H 0.59776 0.88568 0.74816
 H1492 H 0.61861 0.84272 0.73222
 H1493 H 0.59883 0.79875 0.74593
 H1494 H 0.55816 0.79750 0.77608
 H1495 H 0.51833 0.90961 0.80551
 H1496 H 0.50039 0.86607 0.82099
 C1497 C 0.72291 0.54298 0.11152
 C1498 C 0.71701 0.57098 0.10396
 C1499 C 0.69906 0.58646 0.12138
 C1500 C 0.68546 0.57462 0.14355
 C1501 C 0.68931 0.54693 0.14977
 C1502 C 0.70820 0.53081 0.13395
 C1503 C 0.74479 0.52739 0.09914
 C1504 C 0.74964 0.49999 0.10620
 C1505 C 0.73346 0.48762 0.12628
 C1506 C 0.71309 0.50287 0.14028
 H1507 H 0.75893 0.53634 0.08450
 H1508 H 0.76620 0.48835 0.09617
 H1509 H 0.73721 0.46629 0.13155
 H1510 H 0.70150 0.49267 0.15632
 H1511 H 0.69345 0.60760 0.11681
 H1512 H 0.67123 0.58719 0.15575
 C1513 C 0.19611 1.08368 0.61753
 C1514 C 0.22024 1.06994 0.60712
 C1515 C 0.23056 1.04634 0.62050
 C1516 C 0.21728 1.03606 0.64382
 C1517 C 0.19331 1.04908 0.65434
 C1518 C 0.18283 1.07341 0.64160
 C1519 C 0.18452 1.10709 0.60421
 C1520 C 0.16109 1.12062 0.61499
 C1521 C 0.14869 1.11112 0.63908
 C1522 C 0.15935 1.08775 0.65231
 H1523 H 0.19326 1.11509 0.58531
 H1524 H 0.15254 1.13861 0.60463
 H1525 H 0.13063 1.12184 0.64747
 H1526 H 0.14912 1.08115 0.67104
 H1527 H 0.24895 1.03571 0.61268
 H1528 H 0.22537 1.01739 0.65335
 C1529 C 0.16534 0.94631 0.90372
 C1530 C 0.19391 0.94923 0.90932
 C1531 C 0.20913 0.96676 0.89213
 C1532 C 0.19828 0.97690 0.86755
 C1533 C 0.17150 0.97103 0.85992
 C1534 C 0.15414 0.95741 0.87895
 C1535 C 0.14708 0.93475 0.92333
 C1536 C 0.11915 0.93268 0.91797
 C1537 C 0.10847 0.94291 0.89349
 C1538 C 0.12560 0.95552 0.87431
 H1539 H 0.15398 0.92804 0.94339
 H1540 H 0.10560 0.92364 0.93318
 H1541 H 0.08665 0.94172 0.88963
 H1542 H 0.11603 0.96452 0.85629
 H1543 H 0.23065 0.97020 0.89586
 H1544 H 0.21153 0.98807 0.85361
 C1545 C 0.68042 0.45368 0.39992
 C1546 C 0.70888 0.44611 0.39865
 C1547 C 0.72387 0.45007 0.37419
 C1548 C 0.71106 0.46102 0.35094
 C1549 C 0.68287 0.46809 0.35147
 C1550 C 0.66737 0.46503 0.37619
 C1551 C 0.66445 0.44967 0.42407
 C1552 C 0.63653 0.45742 0.42503
 C1553 C 0.62396 0.46917 0.40205
 C1554 C 0.63913 0.47297 0.37782
 H1555 H 0.67330 0.44050 0.44238
 H1556 H 0.62458 0.45433 0.44371
 H1557 H 0.60232 0.47529 0.40297
 H1558 H 0.62858 0.48227 0.36048
 H1559 H 0.74559 0.44418 0.37299
 H1560 H 0.72307 0.46329 0.33214
 C1561 C 0.80848 0.42986 0.61661
 C1562 C 0.79094 0.44619 0.59954
 C1563 C 0.78520 0.47357 0.60603
 C1564 C 0.79660 0.48500 0.62908
 C1565 C 0.81414 0.46937 0.64612
 C1566 C 0.81991 0.44148 0.64026
 C1567 C 0.81530 0.40233 0.61044
 C1568 C 0.83234 0.38648 0.62758
 C1569 C 0.84296 0.39766 0.65107
 C1570 C 0.83689 0.42488 0.65743
 H1571 H 0.80771 0.39282 0.59231
 H1572 H 0.83731 0.36539 0.62263
 H1573 H 0.85606 0.38520 0.66438
 H1574 H 0.84553 0.43270 0.67594
 H1575 H 0.77190 0.48620 0.59305
 H1576 H 0.79216 0.50635 0.63337
 C1577 C 0.29588 -0.02279 0.09189
 C1578 C 0.28729 -0.05002 0.09489
 C1579 C 0.28922 -0.06328 0.12046
 C1580 C 0.30016 -0.05034 0.14279
 C1581 C 0.30969 -0.02380 0.14019
 C1582 C 0.30699 -0.00949 0.11481
 C1583 C 0.29427 -0.00868 0.06646
 C1584 C 0.30271 0.01815 0.06389
 C1585 C 0.31294 0.03136 0.08646
 C1586 C 0.31510 0.01777 0.11172
 H1587 H 0.28654 -0.01820 0.04840
 H1588 H 0.30125 0.02876 0.04431
 H1589 H 0.31928 0.05225 0.08436
 H1590 H 0.32295 0.02884 0.12878
 H1591 H 0.28272 -0.08410 0.12297
 H1592 H 0.30219 -0.06153 0.16204
 C1593 C 0.32342 0.03152 0.39887
 C1594 C 0.30158 0.05135 0.40159
 C1595 C 0.28831 0.06152 0.37807
 C1596 C 0.29735 0.05363 0.35203
 C1597 C 0.31980 0.03519 0.34871
 C1598 C 0.33283 0.02356 0.37219
 C1599 C 0.33622 0.01956 0.42212
 C1600 C 0.35826 0.00073 0.41917
 C1601 C 0.36799 -0.00647 0.39313
 C1602 C 0.35554 0.00484 0.36981
 H1603 H 0.32918 0.02451 0.44271
 H1604 H 0.36792 -0.00826 0.43719
 H1605 H 0.38526 -0.02093 0.39098
 H1606 H 0.36391 -0.00123 0.35003
 H1607 H 0.27167 0.07677 0.37983
 H1608 H 0.28731 0.06269 0.33423
 C1609 C 0.81518 0.53906 0.90123
 C1610 C 0.79291 0.55859 0.90153
 C1611 C 0.78087 0.56702 0.87676
 C1612 C 0.79153 0.55767 0.85177
 C1613 C 0.81438 0.53945 0.85083
 C1614 C 0.82617 0.52956 0.87565
 C1615 C 0.82688 0.52891 0.92583
 C1616 C 0.84930 0.51031 0.92523
 C1617 C 0.86049 0.50153 0.90024
 C1618 C 0.84915 0.51104 0.87563
 H1619 H 0.81869 0.53511 0.94567
 H1620 H 0.85810 0.50272 0.94425
 H1621 H 0.87801 0.48723 0.89991
 H1622 H 0.85856 0.50374 0.85671
 H1623 H 0.76391 0.58203 0.87670
 H1624 H 0.78245 0.56543 0.83292
 C1625 C 0.11323 0.67798 0.56880
 C1626 C 0.10353 0.70314 0.55711
 C1627 C 0.11785 0.71460 0.53484
 C1628 C 0.14214 0.70211 0.52474
 C1629 C 0.15278 0.67789 0.53670
 C1630 C 0.13808 0.66528 0.55855
 C1631 C 0.09849 0.66496 0.59023
 C1632 C 0.10818 0.64017 0.60144
 C1633 C 0.13250 0.62778 0.59145
 C1634 C 0.14732 0.64005 0.57014
 H1635 H 0.07922 0.67358 0.59827
 H1636 H 0.09665 0.63042 0.61784
 H1637 H 0.13983 0.60844 0.60011
 H1638 H 0.16584 0.62945 0.56270
 H1639 H 0.11053 0.73374 0.52568
 H1640 H 0.15307 0.71171 0.50781
 C1641 C 0.61726 0.22993 1.03385
 C1642 C 0.60631 0.22186 1.05981
 C1643 C 0.61831 0.19928 1.07361
 C1644 C 0.64044 0.18448 1.06213
 C1645 C 0.65130 0.19154 1.03629
 C1646 C 0.63955 0.21428 1.02171
 C1647 C 0.60680 0.25337 1.01981
 C1648 C 0.61708 0.26047 0.99387
 C1649 C 0.63790 0.24447 0.98147
 C1650 C 0.64907 0.22157 0.99515
 H1651 H 0.59080 0.26652 1.02877
 H1652 H 0.60875 0.27842 0.98328
 H1653 H 0.64553 0.24990 0.96118
 H1654 H 0.66502 0.20961 0.98461
 H1655 H 0.61017 0.19274 1.09340
 H1656 H 0.64920 0.16723 1.07357
 C1657 C 0.90190 0.17741 0.94846
 C1658 C 0.89814 0.19942 0.92888
 C1659 C 0.87082 0.20751 0.92207
 C1660 C 0.84820 0.19583 0.93473
 C1661 C 0.85154 0.17559 0.95489
 C1662 C 0.87841 0.16622 0.96209
 C1663 C 0.92791 0.16398 0.95260
 C1664 C 0.93115 0.14279 0.97179
 C1665 C 0.90851 0.13353 0.98651
 C1666 C 0.88231 0.14471 0.98143
 H1667 H 0.94590 0.16875 0.94037
 H1668 H 0.95130 0.13314 0.97487
 H1669 H 0.91113 0.11694 1.00126
 H1670 H 0.86514 0.13590 0.99237
 H1671 H 0.86649 0.22423 0.90783
 H1672 H 0.82768 0.20286 0.92883
 C1673 C 0.39502 0.71251 0.46521
 C1674 C 0.40038 0.71230 0.43650
 C1675 C 0.38309 0.69818 0.41941
 C1676 C 0.36103 0.68399 0.43025
 C1677 C 0.35544 0.68359 0.45852
 C1678 C 0.37249 0.69783 0.47635
 C1679 C 0.41138 0.72722 0.48307
 C1680 C 0.40616 0.72682 0.51131
 C1681 C 0.38464 0.71187 0.52226
 C1682 C 0.36792 0.69746 0.50504
 H1683 H 0.42819 0.73925 0.47541
 H1684 H 0.41893 0.73813 0.52478
 H1685 H 0.38084 0.71149 0.54422
 H1686 H 0.35152 0.68601 0.51443
 H1687 H 0.38697 0.69782 0.39744
 H1688 H 0.34818 0.67316 0.41643
 C1689 C 0.59192 0.81087 0.46981
 C1690 C 0.59531 0.79639 0.44498
 C1691 C 0.62179 0.79136 0.43397
 C1692 C 0.64472 0.80189 0.44625
 C1693 C 0.64184 0.81764 0.46997
 C1694 C 0.61541 0.82133 0.48261
 C1695 C 0.56566 0.81509 0.48224
 C1696 C 0.56265 0.82904 0.50691
 C1697 C 0.58566 0.83886 0.51969
 C1698 C 0.61183 0.83500 0.50779
 H1699 H 0.54733 0.80739 0.47318
 H1700 H 0.54241 0.83205 0.51627
 H1701 H 0.58322 0.84941 0.53899
 H1702 H 0.62919 0.84248 0.51869
 H1703 H 0.62457 0.78023 0.41502
 H1704 H 0.66476 0.79880 0.43641
 C1705 C 0.11953 0.28489 -0.07841
 C1706 C 0.09432 0.28311 -0.06351
 C1707 C 0.09284 0.29082 -0.03599
 C1708 C 0.11567 0.30119 -0.02334
 C1709 C 0.14061 0.30400 -0.03784
 C1710 C 0.14284 0.29562 -0.06556
 C1711 C 0.12190 0.27660 -0.10602
 C1712 C 0.14657 0.27922 -0.12074
 C1713 C 0.16921 0.29022 -0.10837
 C1714 C 0.16745 0.29846 -0.08110
 H1715 H 0.10477 0.26801 -0.11641
 H1716 H 0.14810 0.27281 -0.14189
 H1717 H 0.18824 0.29241 -0.11998
 H1718 H 0.18547 0.30715 -0.07247
 H1719 H 0.07359 0.28967 -0.02451
 H1720 H 0.11370 0.30773 -0.00223
 C1721 C 0.37043 0.27479 0.07231
 C1722 C 0.39433 0.28602 0.06011
 C1723 C 0.39164 0.30394 0.03760
 C1724 C 0.36575 0.31177 0.02775
 C1725 C 0.34176 0.30199 0.04021
 C1726 C 0.34396 0.28257 0.06199
 C1727 C 0.37211 0.25671 0.09512
 C1728 C 0.34841 0.24576 0.10673
 C1729 C 0.32265 0.25268 0.09604
 C1730 C 0.32033 0.27094 0.07392
 H1731 H 0.39162 0.25089 0.10428
 H1732 H 0.35005 0.23180 0.12409
 H1733 H 0.30435 0.24396 0.10503
 H1734 H 0.29995 0.27570 0.06614
 H1735 H 0.40974 0.31270 0.02818
 H1736 H 0.36437 0.32670 0.01116
 C1737 C 0.87144 0.77880 0.56507
 C1738 C 0.89639 0.78814 0.55333
 C1739 C 0.89549 0.80703 0.53151
 C1740 C 0.87039 0.81766 0.52195
 C1741 C 0.84549 0.80985 0.53412
 C1742 C 0.84578 0.78958 0.55519
 C1743 C 0.87140 0.75963 0.58700
 C1744 C 0.84666 0.75073 0.59834
 C1745 C 0.82159 0.76079 0.58821
 C1746 C 0.82104 0.78006 0.56687
 H1747 H 0.89036 0.75135 0.59561
 H1748 H 0.84694 0.73593 0.61505
 H1749 H 0.80246 0.75369 0.59701
 H1750 H 0.80113 0.78729 0.55951
 H1751 H 0.91444 0.81441 0.52252
 H1752 H 0.87044 0.83321 0.50591
   
