data_POSCAR
  _audit_creation_date              2014-09-24
  _audit_creation_method            'ToBaCCo'
  _symmetry_space_group_name_H-M    'P1'
  _symmetry_Int_Tables_number       1
  _symmetry_cell_setting            triclinic
  loop_
  _symmetry_equiv_pos_as_xyz
 x,y,z
_cell_length_a 63.7603
_cell_length_b 63.6013
_cell_length_c 63.6867
_cell_angle_alpha 90.079700
_cell_angle_beta 90.073700
_cell_angle_gamma 90.026600
loop_
  _atom_site_label
  _atom_site_type_symbol
  _atom_site_fract_x
  _atom_site_fract_y
  _atom_site_fract_z
C1 C 0.29946 0.43664 0.91984
 C2 C 0.29784 0.42086 0.93512
 C3 C 0.31254 0.41966 0.95102
 C4 C 0.32910 0.43415 0.95187
 C5 C 0.33066 0.44971 0.93686
 C6 C 0.31574 0.45096 0.92070
 C7 C 0.28835 0.44064 0.90176
 N8 N 0.29748 0.45700 0.89153
 C9 C 0.31429 0.46340 0.90311
 C10 C 0.34894 0.46053 0.94076
 N11 N 0.35870 0.45185 0.95771
 C12 C 0.34647 0.43567 0.96460
 C13 C 0.30813 0.40191 0.96248
 N14 N 0.29113 0.39220 0.95394
 C15 C 0.28476 0.40377 0.93712
 H16 H 0.27493 0.43188 0.89607
 H17 H 0.32519 0.47570 0.89898
 H18 H 0.35508 0.47344 0.93155
 H19 H 0.34984 0.42528 0.97755
 H20 H 0.31716 0.39592 0.97558
 H21 H 0.27224 0.39975 0.92642
 C22 C 0.43841 0.83180 0.45261
 C23 C 0.42257 0.81657 0.45423
 C24 C 0.42161 0.80027 0.43988
 C25 C 0.43646 0.79896 0.42370
 C26 C 0.45207 0.81394 0.42214
 C27 C 0.45303 0.83050 0.43668
 C28 C 0.44226 0.85019 0.46334
 N29 N 0.45884 0.86022 0.45433
 C30 C 0.46547 0.84813 0.43792
 C31 C 0.46315 0.80970 0.40412
 N32 N 0.45466 0.79254 0.39459
 C33 C 0.43826 0.78589 0.40655
 C34 C 0.40376 0.78894 0.44421
 N35 N 0.39379 0.79791 0.46082
 C36 C 0.40526 0.81489 0.46701
 H37 H 0.43323 0.85622 0.47642
 H38 H 0.47791 0.85186 0.42707
 H39 H 0.47599 0.81891 0.39789
 H40 H 0.42775 0.77310 0.40283
 H41 H 0.39795 0.77557 0.43540
 H42 H 0.40107 0.82589 0.47923
 C43 C 0.93706 0.91943 0.79991
 C44 C 0.92045 0.93385 0.79911
 C45 C 0.91885 0.94941 0.81418
 C46 C 0.93378 0.95072 0.83032
 C47 C 0.95009 0.93647 0.83115
 C48 C 0.95174 0.92068 0.81584
 C49 C 0.94156 0.90172 0.78839
 N50 N 0.95863 0.89204 0.79688
 C51 C 0.96487 0.90364 0.81380
 C52 C 0.96120 0.94057 0.84922
 N53 N 0.95208 0.95698 0.85949
 C54 C 0.93519 0.96322 0.84791
 C55 C 0.90057 0.96019 0.81031
 N56 N 0.89089 0.95150 0.79335
 C57 C 0.90307 0.93536 0.78639
 H58 H 0.93252 0.89574 0.77526
 H59 H 0.97729 0.89970 0.82465
 H60 H 0.97465 0.93183 0.85486
 H61 H 0.92413 0.97539 0.85199
 H62 H 0.89437 0.97307 0.81953
 H63 H 0.89957 0.92503 0.77338
 C64 C 0.43794 -0.07940 0.29957
 C65 C 0.42133 -0.06498 0.29863
 C66 C 0.41965 -0.04938 0.31365
 C67 C 0.43445 -0.04805 0.32989
 C68 C 0.45075 -0.06231 0.33086
 C69 C 0.45251 -0.07810 0.31558
 C70 C 0.44251 -0.09717 0.28815
 N71 N 0.45953 -0.10680 0.29678
 C72 C 0.46565 -0.09514 0.31370
 C73 C 0.46170 -0.05822 0.34902
 N74 N 0.45243 -0.04186 0.35918
 C75 C 0.43570 -0.03556 0.34748
 C76 C 0.40135 -0.03868 0.30975
 N77 N 0.39172 -0.04743 0.29280
 C78 C 0.40395 -0.06355 0.28588
 H79 H 0.43354 -0.10321 0.27500
 H80 H 0.47799 -0.09905 0.32466
 H81 H 0.47511 -0.06690 0.35482
 H82 H 0.42474 -0.02328 0.35151
 H83 H 0.39505 -0.02584 0.31898
 H84 H 0.40042 -0.07400 0.27297
 C85 C 0.80010 0.31302 0.32926
 C86 C 0.79917 0.32947 0.31465
 C87 C 0.81414 0.33096 0.29907
 C88 C 0.83033 0.31609 0.29791
 C89 C 0.83127 0.29990 0.31233
 C90 C 0.81604 0.29835 0.32812
 C91 C 0.78868 0.30863 0.34702
 N92 N 0.79727 0.29168 0.35678
 C93 C 0.81408 0.28533 0.34524
 C94 C 0.84934 0.28881 0.30835
 N95 N 0.85949 0.29787 0.29192
 C96 C 0.84786 0.31461 0.28545
 C97 C 0.81019 0.34916 0.28812
 N98 N 0.79325 0.35888 0.29671
 C99 C 0.78641 0.34683 0.31298
 H100 H 0.77554 0.31762 0.35295
 H101 H 0.82480 0.27282 0.34927
 H102 H 0.85508 0.27544 0.31716
 H103 H 0.85190 0.32542 0.27304
 H104 H 0.81936 0.35530 0.27521
 H105 H 0.77352 0.35045 0.32335
 C106 C -0.18878 0.83041 0.79847
 C107 C -0.17302 0.81511 0.79697
 C108 C -0.17227 0.79883 0.81129
 C109 C -0.18729 0.79759 0.82732
 C110 C -0.20283 0.81264 0.82877
 C111 C -0.20355 0.82921 0.81427
 C112 C -0.19242 0.84878 0.78770
 N113 N -0.20902 0.85892 0.79655
 C114 C -0.21589 0.84691 0.81289
 C115 C -0.21410 0.80841 0.84668
 N116 N -0.20583 0.79114 0.85624
 C117 C -0.18928 0.78453 0.84440
 C118 C -0.15446 0.78740 0.80711
 N119 N -0.14431 0.79628 0.79058
 C120 C -0.15562 0.81332 0.78433
 H121 H -0.18324 0.85471 0.77469
 H122 H -0.22847 0.85069 0.82356
 H123 H -0.22691 0.81774 0.85283
 H124 H -0.17867 0.77184 0.84816
 H125 H -0.14880 0.77401 0.81594
 H126 H -0.15126 0.82430 0.77217
 C127 C 0.95225 0.33027 0.43286
 C128 C 0.95091 0.31400 0.41802
 C129 C 0.93530 0.29903 0.41966
 C130 C 0.92083 0.30006 0.43620
 C131 C 0.92214 0.31609 0.45081
 C132 C 0.93799 0.33131 0.44912
 C133 C 0.96482 0.34780 0.43421
 N134 N 0.95861 0.35957 0.45101
 C135 C 0.94216 0.34944 0.46016
 C136 C 0.90514 0.31418 0.46396
 N137 N 0.89351 0.29732 0.45772
 C138 C 0.90311 0.28863 0.44074
 C139 C 0.93681 0.28613 0.40236
 N140 N 0.95301 0.29289 0.39020
 C141 C 0.96172 0.30990 0.39980
 H142 H 0.97706 0.35171 0.42319
 H143 H 0.93345 0.35523 0.47356
 H144 H 0.90126 0.32494 0.47649
 H145 H 0.89710 0.27541 0.43185
 H146 H 0.92640 0.27320 0.39886
 H147 H 0.97463 0.31902 0.39357
 C148 C 0.44858 0.43644 0.83261
 C149 C 0.44998 0.42026 0.81769
 C150 C 0.43533 0.41890 0.80173
 C151 C 0.41904 0.43366 0.80049
 C152 C 0.41769 0.44958 0.81519
 C153 C 0.43254 0.45096 0.83138
 C154 C 0.45969 0.44076 0.85062
 N155 N 0.45078 0.45753 0.86051
 C156 C 0.43408 0.46382 0.84868
 C157 C 0.39968 0.46066 0.81100
 N158 N 0.38993 0.45185 0.79415
 C159 C 0.40177 0.43527 0.78762
 C160 C 0.43971 0.40096 0.79050
 N161 N 0.45659 0.39127 0.79927
 C162 C 0.46297 0.40308 0.81594
 H163 H 0.47295 0.43191 0.85654
 H164 H 0.42323 0.47630 0.85240
 H165 H 0.39368 0.47384 0.81994
 H166 H 0.39804 0.42467 0.77490
 H167 H 0.43086 0.39495 0.77727
 H168 H 0.47566 0.39938 0.82655
 C169 C 0.79859 0.92079 0.93422
 C170 C 0.80039 0.93657 0.91899
 C171 C 0.81693 0.95060 0.91977
 C172 C 0.83194 0.94902 0.93583
 C173 C 0.83017 0.93345 0.95082
 C174 C 0.81333 0.91927 0.95004
 C175 C 0.78516 0.90399 0.93623
 N176 N 0.79127 0.89224 0.95306
 C177 C 0.80856 0.90160 0.96151
 C178 C 0.84760 0.93471 0.96352
 N179 N 0.86004 0.95073 0.95664
 C180 C 0.85037 0.95957 0.93972
 C181 C 0.81551 0.96317 0.90226
 N182 N 0.79847 0.95713 0.89083
 C183 C 0.78918 0.94086 0.90105
 H184 H 0.77261 0.90030 0.92544
 H185 H 0.81756 0.89544 0.97455
 H186 H 0.85082 0.92431 0.97651
 H187 H 0.85664 0.97245 0.93056
 H188 H 0.82658 0.97530 0.89806
 H189 H 0.77555 0.93238 0.89545
 C190 C 0.29712 0.82855 0.31501
 C191 C 0.29819 0.81223 0.32974
 C192 C 0.31386 0.79731 0.32835
 C193 C 0.32867 0.79846 0.31214
 C194 C 0.32761 0.81453 0.29758
 C195 C 0.31171 0.82969 0.29904
 C196 C 0.28468 0.84615 0.31366
 N197 N 0.29127 0.85806 0.29715
 C198 C 0.30784 0.84795 0.28817
 C199 C 0.34498 0.81283 0.28489
 N200 N 0.35657 0.79606 0.29133
 C201 C 0.34663 0.78724 0.30802
 C202 C 0.31222 0.78458 0.34572
 N203 N 0.29585 0.79138 0.35764
 C204 C 0.28723 0.80829 0.34788
 H205 H 0.27230 0.85001 0.32454
 H206 H 0.31686 0.85388 0.27505
 H207 H 0.34915 0.82373 0.27259
 H208 H 0.35256 0.77410 0.31704
 H209 H 0.32284 0.77195 0.34961
 H210 H 0.27439 0.81757 0.35404
 C211 C 0.79940 0.42204 0.43379
 C212 C 0.80107 0.43770 0.41840
 C213 C 0.81739 0.45199 0.41917
 C214 C 0.83228 0.45083 0.43535
 C215 C 0.83067 0.43539 0.45047
 C216 C 0.81409 0.42092 0.44972
 C217 C 0.78627 0.40501 0.43592
 N218 N 0.79258 0.39356 0.45283
 C219 C 0.80961 0.40328 0.46131
 C220 C 0.84805 0.43695 0.46319
 N221 N 0.86031 0.45306 0.45619
 C222 C 0.85059 0.46162 0.43917
 C223 C 0.81599 0.46432 0.40150
 N224 N 0.79918 0.45788 0.38995
 C225 C 0.79000 0.44161 0.40028
 H226 H 0.77375 0.40094 0.42523
 H227 H 0.81861 0.39736 0.47446
 H228 H 0.85144 0.42659 0.47615
 H229 H 0.85678 0.47442 0.42983
 H230 H 0.82690 0.47659 0.39732
 H231 H 0.77654 0.43287 0.39464
 C232 C 0.93822 0.82776 -0.04823
 C233 C 0.92232 0.81261 -0.04680
 C234 C 0.92136 0.79641 -0.06125
 C235 C 0.93632 0.79510 -0.07732
 C236 C 0.95203 0.81000 -0.07868
 C237 C 0.95295 0.82649 -0.06406
 C238 C 0.94190 0.84616 -0.03749
 N239 N 0.95845 0.85621 -0.04643
 C240 C 0.96531 0.84418 -0.06273
 C241 C 0.96308 0.80591 -0.09674
 N242 N 0.95451 0.78888 -0.10651
 C243 C 0.93800 0.78226 -0.09463
 C244 C 0.90332 0.78528 -0.05723
 N245 N 0.89325 0.79429 -0.04071
 C246 C 0.90483 0.81109 -0.03428
 H247 H 0.93276 0.85223 -0.02451
 H248 H 0.97786 0.84809 -0.07341
 H249 H 0.97591 0.81522 -0.10288
 H250 H 0.92719 0.76977 -0.09853
 H251 H 0.89741 0.77209 -0.06624
 H252 H 0.90056 0.82216 -0.02214
 C253 C 0.29878 0.32897 0.81556
 C254 C 0.29970 0.31241 0.83005
 C255 C 0.31572 0.29783 0.82890
 C256 C 0.33103 0.29957 0.81321
 C257 C 0.33011 0.31585 0.79891
 C258 C 0.31385 0.33066 0.80008
 C259 C 0.28592 0.34625 0.81393
 N260 N 0.29277 0.35846 0.79778
 C261 C 0.30983 0.34891 0.78923
 C262 C 0.34772 0.31450 0.78651
 N263 N 0.35936 0.29773 0.79291
 C264 C 0.34915 0.28855 0.80924
 C265 C 0.31370 0.28467 0.84591
 N266 N 0.29678 0.29086 0.85738
 C267 C 0.28818 0.30784 0.84769
 H268 H 0.27292 0.34970 0.82422
 H269 H 0.31903 0.35519 0.77640
 H270 H 0.35181 0.32542 0.77421
 H271 H 0.35489 0.27514 0.81799
 H272 H 0.32445 0.27218 0.84992
 H273 H 0.27496 0.31673 0.85360
 C274 C 0.17233 0.56571 0.54700
 C275 C 0.18818 0.58089 0.54900
 C276 C 0.20262 0.57946 0.56512
 C277 C 0.20146 0.56280 0.57947
 C278 C 0.18584 0.54786 0.57754
 C279 C 0.17120 0.54931 0.56117
 C280 C 0.15513 0.56418 0.53401
 N281 N 0.14356 0.54719 0.53991
 C282 C 0.15337 0.53807 0.55653
 C283 C 0.18737 0.53469 0.59460
 N284 N 0.20360 0.54124 0.60688
 C285 C 0.21228 0.55842 0.59762
 C286 C 0.21509 0.59710 0.56421
 N287 N 0.20860 0.60926 0.54787
 C288 C 0.19215 0.59935 0.53851
 H289 H 0.15107 0.57529 0.52185
 H290 H 0.14742 0.52467 0.56515
 H291 H 0.17679 0.52188 0.59802
 H292 H 0.22506 0.56756 0.60415
 H293 H 0.22752 0.60084 0.57512
 H294 H 0.18332 0.60551 0.52535
 C295 C 0.57868 0.68494 0.04919
 C296 C 0.56207 0.67051 0.05034
 C297 C 0.54766 0.67190 0.06646
 C298 C 0.54960 0.68777 0.08164
 C299 C 0.56593 0.70200 0.08051
 C300 C 0.58056 0.70059 0.06414
 C301 C 0.59584 0.68637 0.03619
 N302 N 0.60815 0.70256 0.04287
 C303 C 0.59879 0.71133 0.05994
 C304 C 0.56481 0.71458 0.09807
 N305 N 0.54815 0.70834 0.10988
 C306 C 0.53879 0.69196 0.09983
 C307 C 0.53442 0.65490 0.06470
 N308 N 0.54041 0.64319 0.04784
 C309 C 0.55731 0.65273 0.03900
 H310 H 0.59916 0.67592 0.02324
 H311 H 0.60519 0.72424 0.06901
 H312 H 0.57580 0.72690 0.10201
 H313 H 0.52541 0.68331 0.10573
 H314 H 0.52201 0.65107 0.07557
 H315 H 0.56604 0.64663 0.02575
 C316 C 0.68599 0.20336 0.67139
 C317 C 0.67153 0.20230 0.68794
 C318 C 0.67322 0.18662 0.70284
 C319 C 0.68946 0.17181 0.70147
 C320 C 0.70372 0.17286 0.68519
 C321 C 0.70197 0.18875 0.67005
 C322 C 0.68714 0.21582 0.65378
 N323 N 0.70348 0.20915 0.64175
 C324 C 0.71260 0.19261 0.65170
 C325 C 0.71652 0.15552 0.68671
 N326 N 0.71041 0.14393 0.70358
 C327 C 0.69385 0.15387 0.71265
 C328 C 0.65611 0.18826 0.71588
 N329 N 0.64402 0.20463 0.70930
 C330 C 0.65346 0.21327 0.69222
 H331 H 0.67636 0.22834 0.64995
 H332 H 0.72568 0.18363 0.64562
 H333 H 0.72867 0.15138 0.67566
 H334 H 0.68510 0.14794 0.72595
 H335 H 0.65252 0.17767 0.72861
 H336 H 0.64712 0.22613 0.68308
 C337 C 1.07715 0.06228 0.20298
 C338 C 1.06089 0.07705 0.20156
 C339 C 1.04624 0.07555 0.18562
 C340 C 1.04762 0.05920 0.17088
 C341 C 1.06364 0.04465 0.17224
 C342 C 1.07851 0.04619 0.18843
 C343 C 1.09454 0.06099 0.21571
 N344 N 1.10649 0.04445 0.20932
 C345 C 1.09670 0.03536 0.19262
 C346 C 1.06220 0.03180 0.15487
 N347 N 1.04555 0.03810 0.14297
 C348 C 1.03665 0.05492 0.15278
 C349 C 1.03351 0.09297 0.18696
 N350 N 1.04003 0.10504 0.20339
 C351 C 1.05677 0.09531 0.21237
 H352 H 1.09840 0.07193 0.22811
 H353 H 1.10285 0.02224 0.18370
 H354 H 1.07321 0.01950 0.15100
 H355 H 1.02358 0.06393 0.14668
 H356 H 1.02105 0.09678 0.17611
 H357 H 1.06581 0.10156 0.22536
 C358 C 0.06182 0.17004 1.04835
 C359 C 0.07842 0.18447 1.04735
 C360 C 0.07974 0.20059 1.06185
 C361 C 0.06447 0.20254 1.07757
 C362 C 0.04812 0.18831 1.07855
 C363 C 0.04681 0.17190 1.06387
 C364 C 0.05760 0.15183 1.03750
 N365 N 0.04047 0.14245 1.04607
 C366 C 0.03377 0.15473 1.06225
 C367 C 0.03680 0.19287 1.09633
 N368 N 0.04578 0.20958 1.10628
 C369 C 0.06286 0.21548 1.09483
 C370 C 0.09816 0.21116 1.05804
 N371 N 0.10816 0.20184 1.04163
 C372 C 0.09609 0.18545 1.03501
 H373 H 0.06684 0.14534 1.02479
 H374 H 0.02095 0.15124 1.07275
 H375 H 0.02347 0.18409 1.10215
 H376 H 0.07408 0.22749 1.09905
 H377 H 0.10423 0.22434 1.06694
 H378 H 0.09990 0.17455 1.02257
 C379 C 0.16854 0.70063 0.68734
 C380 C 0.18353 0.70224 0.67134
 C381 C 0.19991 0.68805 0.67037
 C382 C 0.20154 0.67203 0.68541
 C383 C 0.18677 0.67049 0.70119
 C384 C 0.17012 0.68485 0.70214
 C385 C 0.15017 0.71123 0.69124
 N386 N 0.14044 0.70225 0.70797
 C387 C 0.15265 0.68606 0.71474
 C388 C 0.19124 0.65262 0.71243
 N389 N 0.20833 0.64315 0.70389
 C390 C 0.21472 0.65500 0.68729
 C391 C 0.21104 0.69243 0.65242
 N392 N 0.20185 0.70890 0.64239
 C393 C 0.18495 0.71497 0.65395
 H394 H 0.14393 0.72419 0.68217
 H395 H 0.14908 0.67547 0.72748
 H396 H 0.18219 0.64639 0.72539
 H397 H 0.22736 0.65122 0.67665
 H398 H 0.22451 0.68383 0.64664
 H399 H 0.17394 0.72720 0.64989
 C400 C 1.18914 0.17031 0.20084
 C401 C 1.17289 0.18510 0.20216
 C402 C 1.17118 0.20070 0.18719
 C403 C 1.18562 0.20169 0.17063
 C404 C 1.20161 0.18711 0.16933
 C405 C 1.20340 0.17129 0.18455
 C406 C 1.19353 0.15244 0.21211
 N407 N 1.21009 0.14246 0.20311
 C408 C 1.21620 0.15395 0.18616
 C409 C 1.21219 0.19093 0.15093
 N410 N 1.20304 0.20746 0.14089
 C411 C 1.18668 0.21409 0.15299
 C412 C 1.15309 0.21166 0.19140
 N413 N 1.14366 0.20308 0.20850
 C414 C 1.15577 0.18677 0.21518
 H415 H 1.18477 0.14658 0.22544
 H416 H 1.22833 0.14972 0.17512
 H417 H 1.22529 0.18192 0.14490
 H418 H 1.17577 0.22651 0.14927
 H419 H 1.14672 0.22445 0.18218
 H420 H 1.15217 0.17622 0.22794
 C421 C 0.67157 1.05021 0.56122
 C422 C 0.68641 1.04864 0.57739
 C423 C 0.70210 1.06352 0.57919
 C424 C 0.70313 1.08025 0.56490
 C425 C 0.68849 1.08180 0.54896
 C426 C 0.67257 1.06666 0.54710
 C427 C 0.65364 1.03905 0.55680
 N428 N 0.64363 1.04826 0.54035
 C429 C 0.65518 1.06524 0.53435
 C430 C 0.69243 1.10027 0.53848
 N431 N 0.70906 1.11013 0.54766
 C432 C 0.71568 1.09782 0.56389
 C433 C 0.71311 1.05904 0.59722
 N434 N 0.70447 1.04186 0.60651
 C435 C 0.68808 1.03541 0.59439
 H436 H 0.64778 1.02563 0.56545
 H437 H 0.65097 1.07640 0.52230
 H438 H 0.68347 1.10644 0.52541
 H439 H 0.72827 1.10130 0.57469
 H440 H 0.72596 1.06814 0.60365
 H441 H 0.67745 1.02268 0.59792
 C442 C 0.56349 0.54724 0.17319
 C443 C 0.57848 0.54861 0.18927
 C444 C 0.57761 0.56489 0.20363
 C445 C 0.56172 0.58005 0.20213
 C446 C 0.54695 0.57873 0.18628
 C447 C 0.54783 0.56217 0.17173
 C448 C 0.56166 0.53424 0.15600
 N449 N 0.54519 0.54086 0.14411
 C450 C 0.53668 0.55795 0.15372
 C451 C 0.53455 0.59638 0.18761
 N452 N 0.54141 0.60843 0.20392
 C453 C 0.55801 0.59844 0.21286
 C454 C 0.59509 0.56336 0.21622
 N455 N 0.60660 0.54648 0.20989
 C456 C 0.59646 0.53742 0.19340
 H457 H 0.57223 0.52153 0.15220
 H458 H 0.52380 0.56715 0.14752
 H459 H 0.52193 0.60021 0.17696
 H460 H 0.56714 0.60452 0.22587
 H461 H 0.59937 0.57442 0.22837
 H462 H 0.60227 0.52412 0.18452
 C463 C 0.67031 0.68487 0.20060
 C464 C 0.68691 0.67046 0.19945
 C465 C 0.70134 0.67182 0.18334
 C466 C 0.69940 0.68765 0.16817
 C467 C 0.68308 0.70188 0.16930
 C468 C 0.66843 0.70049 0.18566
 C469 C 0.65315 0.68632 0.21360
 N470 N 0.64085 0.70249 0.20695
 C471 C 0.65021 0.71123 0.18988
 C472 C 0.68422 0.71443 0.15176
 N473 N 0.70089 0.70819 0.13996
 C474 C 0.71023 0.69182 0.14999
 C475 C 0.71459 0.65484 0.18512
 N476 N 0.70858 0.64318 0.20198
 C477 C 0.69166 0.65272 0.21079
 H478 H 0.64985 0.67590 0.22656
 H479 H 0.64382 0.72413 0.18083
 H480 H 0.67324 0.72673 0.14782
 H481 H 0.72362 0.68317 0.14410
 H482 H 0.72699 0.65097 0.17425
 H483 H 0.68291 0.64663 0.22402
 C484 C 0.17268 0.06296 1.04636
 C485 C 0.18855 0.07813 1.04819
 C486 C 0.20312 0.07673 1.06420
 C487 C 0.20205 0.06011 1.07861
 C488 C 0.18639 0.04519 1.07686
 C489 C 0.17162 0.04661 1.06059
 C490 C 0.15531 0.06150 1.03359
 N491 N 0.14372 0.04459 1.03968
 C492 C 0.15368 0.03546 1.05620
 C493 C 0.18796 0.03216 1.09402
 N494 N 0.20425 0.03878 1.10618
 C495 C 0.21293 0.05586 1.09676
 C496 C 0.21552 0.09441 1.06322
 N497 N 0.20886 0.10657 1.04695
 C498 C 0.19239 0.09661 1.03769
 H499 H 0.15112 0.07263 1.02150
 H500 H 0.14775 0.02214 1.06496
 H501 H 0.17734 0.01943 1.09762
 H502 H 0.22572 0.06505 1.10318
 H503 H 0.22800 0.09818 1.07407
 H504 H 0.18342 0.10277 1.02462
 C505 C 0.58011 0.20367 0.56133
 C506 C 0.56493 0.20552 0.57715
 C507 C 0.54850 0.19137 0.57802
 C508 C 0.54700 0.17517 0.56315
 C509 C 0.56194 0.17339 0.54755
 C510 C 0.57864 0.18771 0.54666
 C511 C 0.59865 0.21407 0.55766
 N512 N 0.60857 0.20482 0.54117
 C513 C 0.59633 0.18864 0.53435
 C514 C 0.55764 0.15524 0.53661
 N515 N 0.54051 0.14587 0.54519
 C516 C 0.53392 0.15805 0.56149
 C517 C 0.53736 0.19568 0.59597
 N518 N 0.54657 0.21209 0.60611
 C519 C 0.56352 0.21818 0.59464
 H520 H 0.60487 0.22708 0.56673
 H521 H 0.60005 0.17782 0.52182
 H522 H 0.56686 0.14876 0.52389
 H523 H 0.52123 0.15443 0.57211
 H524 H 0.52401 0.18693 0.60179
 H525 H 0.57472 0.23017 0.59900
 C526 C 0.07690 0.56418 0.70310
 C527 C 0.06103 0.57934 0.70133
 C528 C 0.04660 0.57809 0.68517
 C529 C 0.04781 0.56163 0.67055
 C530 C 0.06346 0.54670 0.67225
 C531 C 0.07809 0.54798 0.68867
 C532 C 0.09412 0.56260 0.71603
 N533 N 0.10578 0.54577 0.70985
 C534 C 0.09599 0.53679 0.69311
 C535 C 0.06201 0.53379 0.65495
 N536 N 0.04579 0.54048 0.64275
 C537 C 0.03705 0.55749 0.65229
 C538 C 0.03416 0.59573 0.68631
 N539 N 0.04065 0.60771 0.70282
 C540 C 0.05707 0.59768 0.71207
 H541 H 0.09817 0.57360 0.72832
 H542 H 0.10201 0.52356 0.68425
 H543 H 0.07264 0.52109 0.65132
 H544 H 0.02428 0.56670 0.64589
 H545 H 0.02177 0.59961 0.67541
 H546 H 0.06591 0.60371 0.72530
 C547 C 0.67070 0.54816 0.06003
 C548 C 0.68563 0.54685 0.07616
 C549 C 0.70130 0.56179 0.07768
 C550 C 0.70222 0.57831 0.06313
 C551 C 0.68750 0.57958 0.04725
 C552 C 0.67162 0.56441 0.04569
 C553 C 0.65270 0.53700 0.05590
 N554 N 0.64259 0.54604 0.03941
 C555 C 0.65414 0.56289 0.03310
 C556 C 0.69119 0.59797 0.03656
 N557 N 0.70775 0.60802 0.04556
 C558 C 0.71459 0.59600 0.06188
 C559 C 0.71236 0.55762 0.09574
 N560 N 0.70379 0.54057 0.10533
 C561 C 0.68737 0.53390 0.09336
 H562 H 0.64683 0.52375 0.06480
 H563 H 0.64985 0.57395 0.02098
 H564 H 0.68207 0.60402 0.02355
 H565 H 0.72714 0.59991 0.07259
 H566 H 0.72522 0.56684 0.10199
 H567 H 0.67679 0.52120 0.09711
 C568 C 0.06636 0.70196 0.58006
 C569 C 0.08130 0.70069 0.56398
 C570 C 0.07976 0.68514 0.54890
 C571 C 0.06315 0.67068 0.54962
 C572 C 0.04842 0.67192 0.56547
 C573 C 0.05004 0.68769 0.58081
 C574 C 0.06496 0.71439 0.59769
 N575 N 0.04814 0.70804 0.60920
 C576 C 0.03894 0.69172 0.59887
 C577 C 0.03528 0.65488 0.56333
 N578 N 0.04162 0.64330 0.54650
 C579 C 0.05867 0.65296 0.53807
 C580 C 0.09720 0.68667 0.53629
 N581 N 0.10935 0.70282 0.54336
 C582 C 0.09961 0.71147 0.56026
 H583 H 0.07589 0.72667 0.60188
 H584 H 0.02549 0.68301 0.60450
 H585 H 0.02269 0.65092 0.57395
 H586 H 0.06768 0.64696 0.52496
 H587 H 0.10079 0.67633 0.52333
 H588 H 0.10580 0.72432 0.56956
 C589 C 0.56386 1.04760 0.67268
 C590 C 0.57876 1.04898 0.68885
 C591 C 0.57745 1.06491 0.70356
 C592 C 0.56118 1.07971 0.70232
 C593 C 0.54652 1.07837 0.68639
 C594 C 0.54786 1.06218 0.67147
 C595 C 0.56237 1.03489 0.65524
 N596 N 0.54569 1.04127 0.64343
 C597 C 0.53684 1.05804 0.65336
 C598 C 0.53375 1.09575 0.68793
 N599 N 0.54019 1.10765 0.70457
 C600 C 0.55703 1.09783 0.71336
 C601 C 0.59487 1.06343 0.71626
 N602 N 0.60675 1.04691 0.70966
 C603 C 0.59691 1.03804 0.69289
 H604 H 0.57336 1.02261 0.65126
 H605 H 0.52375 1.06709 0.64737
 H606 H 0.52141 1.09963 0.67698
 H607 H 0.56613 1.10393 0.72638
 H608 H 0.59878 1.07421 0.72879
 H609 H 0.60299 1.02498 0.68382
 C610 C 0.45098 0.33028 0.93447
 C611 C 0.44979 0.31420 0.91942
 C612 C 0.43433 0.29906 0.92086
 C613 C 0.41987 0.29972 0.93741
 C614 C 0.42102 0.31557 0.95223
 C615 C 0.43671 0.33096 0.95075
 C616 C 0.46335 0.34793 0.93604
 N617 N 0.45703 0.35941 0.95300
 C618 C 0.44068 0.34900 0.96200
 C619 C 0.40402 0.31335 0.96533
 N620 N 0.39255 0.29647 0.95886
 C621 C 0.40224 0.28808 0.94179
 C622 C 0.43598 0.28640 0.90340
 N623 N 0.45211 0.29349 0.89133
 C624 C 0.46065 0.31045 0.90116
 H625 H 0.47548 0.35215 0.92501
 H626 H 0.43188 0.35455 0.97545
 H627 H 0.40003 0.32394 0.97797
 H628 H 0.39634 0.27495 0.93270
 H629 H 0.42575 0.27336 0.89978
 H630 H 0.47350 0.31976 0.89507
 C631 C 0.94908 0.43517 0.33139
 C632 C 0.95034 0.41902 0.31641
 C633 C 0.93575 0.41791 0.30038
 C634 C 0.91966 0.43288 0.29911
 C635 C 0.91844 0.44878 0.31385
 C636 C 0.93323 0.44991 0.33012
 C637 C 0.96025 0.43939 0.34940
 N638 N 0.95153 0.45628 0.35927
 C639 C 0.93495 0.46279 0.34740
 C640 C 0.90059 0.46011 0.30958
 N641 N 0.89082 0.45146 0.29265
 C642 C 0.90249 0.43476 0.28615
 C643 C 0.93996 0.39999 0.28906
 N644 N 0.95671 0.39007 0.29782
 C645 C 0.96315 0.40171 0.31460
 H646 H 0.97345 0.43044 0.35529
 H647 H 0.92438 0.47554 0.35097
 H648 H 0.89470 0.47333 0.31853
 H649 H 0.89870 0.42423 0.27339
 H650 H 0.93111 0.39418 0.27575
 H651 H 0.97577 0.39781 0.32522
 C652 C 0.30137 0.93778 0.41879
 C653 C 0.29962 0.92228 0.43434
 C654 C 0.31426 0.92127 0.45032
 C655 C 0.33089 0.93569 0.45097
 C656 C 0.33260 0.95097 0.43568
 C657 C 0.31773 0.95201 0.41944
 C658 C 0.29023 0.94163 0.40070
 N659 N 0.29939 0.95786 0.39020
 C660 C 0.31631 0.96425 0.40170
 C661 C 0.35086 0.96185 0.43957
 N662 N 0.36044 0.95350 0.45679
 C663 C 0.34814 0.93745 0.46384
 C664 C 0.30962 0.90379 0.46213
 N665 N 0.29256 0.89408 0.45374
 C666 C 0.28637 0.90536 0.43666
 H667 H 0.27670 0.93289 0.39523
 H668 H 0.32731 0.97645 0.39753
 H669 H 0.35708 0.97460 0.43020
 H670 H 0.35137 0.92729 0.47701
 H671 H 0.31854 0.89800 0.47539
 H672 H 0.27383 0.90125 0.42600
 O673 O 0.19489 0.52988 0.75039
 O674 O 0.20350 0.52844 0.78620
 O675 O 0.24961 0.55443 0.72086
 O676 O 0.28396 0.54652 0.71925
 O677 O 0.21944 0.49969 0.69572
 O678 O 0.21974 0.46321 0.70516
 O679 O 0.30498 0.49673 0.77552
 O680 O 0.30113 0.53289 0.76932
 O681 O 0.25278 0.47499 0.80608
 O682 O 0.21439 0.47867 0.80088
 O683 O 0.27397 0.44393 0.75364
 O684 O 0.27045 0.44908 0.71539
 O685 O 0.30247 0.47042 0.75134
 O686 O 0.29320 0.47127 0.71266
 O687 O 0.24988 0.44623 0.77982
 O688 O 0.21146 0.45577 0.77881
 O689 O 0.27934 0.49871 0.80345
 O690 O 0.27391 0.53683 0.79535
 O691 O 0.19224 0.50332 0.72643
 O692 O 0.19793 0.46562 0.73011
 O693 O 0.24566 0.52388 0.69328
 O694 O 0.28386 0.51842 0.69970
 O695 O 0.22498 0.55676 0.74663
 O696 O 0.23189 0.55057 0.78471
 Zr697 Zr 0.22581 0.52725 0.76162
 O698 O 0.24415 0.50853 0.78177
 Zr699 Zr 0.26051 0.52329 0.72281
 O700 O 0.28062 0.50492 0.74153
 Zr701 Zr 0.22180 0.48844 0.72670
 O702 O 0.24034 0.46818 0.74515
 Zr703 Zr 0.27579 0.51177 0.77340
 O704 O 0.25772 0.53231 0.75454
 Zr705 Zr 0.23728 0.47662 0.77691
 O706 O 0.21695 0.49545 0.75861
 Zr707 Zr 0.27221 0.47314 0.73833
 O708 O 0.25345 0.49134 0.71776
 O709 O 0.22900 0.52004 0.72998
 O710 O 0.26893 0.47997 0.77005
 C711 C 0.18476 0.51920 0.73650
 C712 C 0.23536 0.56441 0.73111
 C713 C 0.22993 0.51373 0.68569
 C714 C 0.31227 0.48057 0.76583
 C715 C 0.26907 0.48445 0.81333
 C716 C 0.26433 0.43649 0.76970
 H717 H 0.24186 0.51286 0.79651
 H718 H 0.23611 0.45344 0.74262
 H719 H 0.22005 0.52901 0.72102
 H720 H 0.29539 0.50747 0.73755
 H721 H 0.29497 0.54636 0.76457
 H722 H 0.29549 0.54283 0.72895
 H723 H 0.21288 0.44529 0.76741
 H724 H 0.19157 0.46797 0.74409
 H725 H 0.28637 0.53599 0.80465
 H726 H 0.22118 0.56181 0.78338
 H727 H 0.25742 0.44103 0.71791
 H728 H 0.23347 0.46248 0.69796
 H729 H 0.19683 0.51440 0.78683
 H730 H 0.21730 0.49150 0.80918
 H731 H 0.28008 0.50534 0.69212
 H732 H 0.30378 0.48251 0.71435
 O733 O 0.19580 0.02915 0.24988
 O734 O 0.20449 0.02798 0.28571
 O735 O 0.25046 0.05331 0.22000
 O736 O 0.28476 0.04535 0.21826
 O737 O 0.22015 -0.00171 0.19551
 O738 O 0.22046 -0.03809 0.20542
 O739 O 0.30605 -0.00370 0.27490
 O740 O 0.30206 0.03237 0.26842
 O741 O 0.25409 -0.02530 0.30599
 O742 O 0.21560 -0.02144 0.30104
 O743 O 0.27477 -0.05688 0.25379
 O744 O 0.27125 -0.05214 0.21560
 O745 O 0.30342 -0.03031 0.25107
 O746 O 0.29390 -0.02998 0.21246
 O747 O 0.25064 -0.05431 0.27991
 O748 O 0.21243 -0.04457 0.27931
 O749 O 0.28057 -0.00154 0.30299
 O750 O 0.27501 0.03648 0.29458
 O751 O 0.19306 0.00232 0.22623
 O752 O 0.19870 -0.03532 0.23038
 O753 O 0.24636 0.02245 0.19273
 O754 O 0.28456 0.01705 0.19905
 O755 O 0.22598 0.05596 0.24587
 O756 O 0.23286 0.05012 0.28397
 Zr757 Zr 0.22675 0.02659 0.26110
 O758 O 0.24520 0.00811 0.28139
 Zr759 Zr 0.26132 0.02218 0.22220
 O760 O 0.28149 0.00402 0.24103
 Zr761 Zr 0.22260 -0.01259 0.22663
 O762 O 0.24120 -0.03263 0.24524
 Zr763 Zr 0.27680 0.01123 0.27284
 O764 O 0.25864 0.03155 0.25384
 Zr765 Zr 0.23830 -0.02384 0.27693
 O766 O 0.21789 -0.00525 0.25848
 Zr767 Zr 0.27306 -0.02779 0.23823
 O768 O 0.25422 -0.00982 0.21753
 O769 O 0.22983 0.01904 0.22952
 O770 O 0.26994 -0.02062 0.26989
 C771 C 0.18563 0.01834 0.23613
 C772 C 0.23632 0.06344 0.23025
 C773 C 0.23062 0.01221 0.18530
 C774 C 0.31332 -0.01993 0.26533
 C775 C 0.27043 -0.01575 0.31306
 C776 C 0.26500 -0.06421 0.26981
 H777 H 0.24300 0.01259 0.29610
 H778 H 0.23693 -0.04738 0.24288
 H779 H 0.22087 0.02794 0.22050
 H780 H 0.29624 0.00653 0.23695
 H781 H 0.29584 0.04578 0.26357
 H782 H 0.29632 0.04178 0.22798
 H783 H 0.21350 -0.05493 0.26776
 H784 H 0.19234 -0.03274 0.24432
 H785 H 0.28753 0.03575 0.30380
 H786 H 0.22214 0.06134 0.28256
 H787 H 0.25810 -0.06000 0.21810
 H788 H 0.23413 -0.03884 0.19809
 H789 H 0.19788 0.01393 0.28653
 H790 H 0.21868 -0.00861 0.30927
 H791 H 0.28075 0.00390 0.19162
 H792 H 0.30447 -0.01868 0.21393
 O793 O 0.49733 0.77573 0.30816
 O794 O 0.53355 0.77072 0.30331
 O795 O 0.47603 0.80776 0.25420
 O796 O 0.47796 0.80374 0.21909
 O797 O 0.44344 0.75376 0.27579
 O798 O 0.44909 0.71663 0.27222
 O799 O 0.53072 0.75069 0.19803
 O800 O 0.52792 0.78662 0.20547
 O801 O 0.55357 0.72063 0.25065
 O802 O 0.54475 0.72081 0.28829
 O803 O 0.50051 0.69728 0.22131
 O804 O 0.46339 0.70625 0.22097
 O805 O 0.50449 0.72650 0.19550
 O806 O 0.46506 0.73106 0.20099
 O807 O 0.52460 0.69465 0.24752
 O808 O 0.52020 0.70048 0.28669
 O809 O 0.55586 0.74658 0.22622
 O810 O 0.55121 0.78472 0.23528
 O811 O 0.47140 0.75110 0.30592
 O812 O 0.47180 0.71399 0.29633
 O813 O 0.44573 0.77987 0.25148
 O814 O 0.45595 0.77798 0.21387
 O815 O 0.50000 0.80535 0.28064
 O816 O 0.53762 0.79541 0.27736
 Zr817 Zr 0.51173 0.77446 0.27850
 O818 O 0.53178 0.75550 0.26029
 Zr819 Zr 0.47659 0.77794 0.23993
 O820 O 0.49551 0.75975 0.21984
 Zr821 Zr 0.47314 0.73936 0.27496
 O822 O 0.49133 0.71914 0.25614
 Zr823 Zr 0.52716 0.76265 0.22849
 O824 O 0.50853 0.78324 0.24674
 Zr825 Zr 0.52321 0.72377 0.26315
 O826 O 0.50483 0.74244 0.28358
 Zr827 Zr 0.48844 0.72784 0.22441
 O828 O 0.46786 0.74617 0.24303
 O829 O 0.48010 0.77097 0.27150
 O830 O 0.52009 0.73086 0.23148
 C831 C 0.48176 0.76540 0.31584
 C832 C 0.48609 0.81539 0.26999
 C833 C 0.43576 0.76938 0.26553
 C834 C 0.52060 0.73623 0.18820
 C835 C 0.56324 0.73055 0.23599
 C836 C 0.51482 0.68734 0.23144
 H837 H 0.54654 0.75795 0.26445
 H838 H 0.48696 0.70442 0.25849
 H839 H 0.47113 0.77997 0.28043
 H840 H 0.49338 0.76413 0.20510
 H841 H 0.52391 0.79983 0.21267
 H842 H 0.48840 0.80017 0.20820
 H843 H 0.50843 0.69115 0.28271
 H844 H 0.48519 0.71413 0.30421
 H845 H 0.56165 0.78402 0.22377
 H846 H 0.53629 0.80565 0.28905
 H847 H 0.46277 0.69772 0.23392
 H848 H 0.44301 0.71834 0.25801
 H849 H 0.53179 0.75624 0.30869
 H850 H 0.55389 0.73338 0.28820
 H851 H 0.44693 0.76538 0.21522
 H852 H 0.46945 0.74243 0.19137
 O853 O -0.00407 0.77430 0.80741
 O854 O 0.03211 0.76934 0.80267
 O855 O -0.02504 0.80689 0.75355
 O856 O -0.02291 0.80306 0.71837
 O857 O -0.05793 0.75297 0.77468
 O858 O -0.05254 0.71583 0.77068
 O859 O 0.02983 0.74989 0.69736
 O860 O 0.02703 0.78578 0.70488
 O861 O 0.05222 0.71958 0.74996
 O862 O 0.04303 0.71952 0.78758
 O863 O -0.00067 0.69650 0.72005
 O864 O -0.03784 0.70562 0.71961
 O865 O 0.00349 0.72585 0.69447
 O866 O -0.03592 0.73049 0.69971
 O867 O 0.02323 0.69367 0.74642
 O868 O 0.01857 0.69919 0.78554
 O869 O 0.05479 0.74569 0.72574
 O870 O 0.05009 0.78378 0.73488
 O871 O -0.02999 0.74969 0.80489
 O872 O -0.03001 0.71276 0.79487
 O873 O -0.05541 0.77919 0.75051
 O874 O -0.04504 0.77739 0.71292
 O875 O -0.00125 0.80418 0.78012
 O876 O 0.03633 0.79418 0.77691
 Zr877 Zr 0.01040 0.77328 0.77779
 O878 O 0.03049 0.75438 0.75960
 Zr879 Zr -0.02451 0.77715 0.73907
 O880 O -0.00553 0.75900 0.71898
 Zr881 Zr -0.02833 0.73834 0.77379
 O882 O -0.01007 0.71817 0.75497
 Zr883 Zr 0.02607 0.76175 0.72782
 O884 O 0.00741 0.78230 0.74609
 Zr885 Zr 0.02177 0.72267 0.76223
 O886 O 0.00333 0.74126 0.78263
 Zr887 Zr -0.01272 0.72707 0.72329
 O888 O -0.03336 0.74538 0.74188
 O889 O -0.02121 0.76995 0.77061
 O890 O 0.01889 0.72996 0.73058
 C891 C -0.01957 0.76382 0.81499
 C892 C -0.01505 0.81436 0.76946
 C893 C -0.06548 0.76871 0.76451
 C894 C 0.01973 0.73552 0.68736
 C895 C 0.06207 0.72961 0.73551
 C896 C 0.01357 0.68648 0.73022
 H897 H 0.04522 0.75676 0.76388
 H898 H -0.01450 0.70345 0.75720
 H899 H -0.03015 0.77891 0.77961
 H900 H -0.00755 0.76348 0.70425
 H901 H 0.02297 0.79897 0.71209
 H902 H -0.01250 0.79946 0.70746
 H903 H 0.00681 0.68991 0.78141
 H904 H -0.01660 0.71262 0.80273
 H905 H 0.06062 0.78311 0.72346
 H906 H 0.03500 0.80434 0.78867
 H907 H -0.03850 0.69695 0.73247
 H908 H -0.05849 0.71770 0.75644
 H909 H 0.03031 0.75482 0.80794
 H910 H 0.05235 0.73196 0.78751
 H911 H -0.05408 0.76479 0.71415
 H912 H -0.03149 0.74198 0.69026
 O913 O -0.00018 0.05309 0.03034
 O914 O -0.03593 0.04438 0.02901
 O915 O 0.02959 -0.00178 0.05455
 O916 O 0.03138 -0.03617 0.04643
 O917 O 0.05429 0.02863 -0.00026
 O918 O 0.04457 0.02848 -0.03655
 O919 O -0.02498 -0.05737 -0.00300
 O920 O -0.01884 -0.05338 0.03305
 O921 O -0.05592 -0.00496 -0.02464
 O922 O -0.05095 0.03349 -0.02068
 O923 O -0.00382 -0.02601 -0.05583
 O924 O 0.03446 -0.02236 -0.05083
 O925 O -0.00102 -0.05473 -0.02935
 O926 O 0.03743 -0.04522 -0.02888
 O927 O -0.02986 -0.00172 -0.05334
 O928 O -0.02898 0.03671 -0.04349
 O929 O -0.05311 -0.03171 -0.00115
 O930 O -0.04495 -0.02623 0.03698
 O931 O 0.02360 0.05582 0.00374
 O932 O 0.01959 0.05023 -0.03393
 O933 O 0.05701 0.00236 0.02383
 O934 O 0.05065 -0.03595 0.01835
 O935 O 0.00381 0.02286 0.05707
 O936 O -0.03422 0.01586 0.05097
 Zr937 Zr -0.01132 0.02207 0.02764
 O938 O -0.03152 0.00369 0.00893
 Zr939 Zr 0.02753 -0.01260 0.02338
 O940 O 0.00877 -0.03275 0.00502
 Zr941 Zr 0.02326 0.02625 -0.01127
 O942 O 0.00478 0.00768 -0.03150
 Zr943 Zr -0.02306 -0.02803 0.01197
 O944 O -0.00412 -0.00992 0.03249
 Zr945 Zr -0.02687 0.01068 -0.02290
 O946 O -0.00855 0.03104 -0.00409
 Zr947 Zr 0.01171 -0.02427 -0.02672
 O948 O 0.03232 -0.00546 -0.00854
 O949 O 0.02026 0.01897 0.02029
 O950 O -0.01993 -0.02107 -0.01978
 C951 C 0.01361 0.06328 0.01966
 C952 C 0.01934 0.01241 0.06464
 C953 C 0.06448 0.01812 0.01364
 C954 C -0.01527 -0.06468 -0.01911
 C955 C -0.06306 -0.02138 -0.01534
 C956 C -0.01984 -0.01620 -0.06318
 H957 H -0.04623 0.00593 0.01330
 H958 H 0.00720 0.01197 -0.04620
 H959 H 0.02925 0.02793 0.02927
 H960 H 0.01282 -0.04754 0.00751
 H961 H -0.01404 -0.04717 0.04649
 H962 H 0.02152 -0.04763 0.04287
 H963 H -0.01764 0.03539 -0.05399
 H964 H 0.00570 0.05668 -0.03137
 H965 H -0.05421 -0.03874 0.03607
 H966 H -0.03287 0.02656 0.06224
 H967 H 0.03173 -0.00937 -0.05890
 H968 H 0.05171 0.01469 -0.03748
 H969 H -0.03670 0.05106 0.01500
 H970 H -0.05914 0.03051 -0.00784
 H971 H 0.05812 -0.03215 0.00528
 H972 H 0.03607 -0.05566 -0.01748
 O973 O 0.05482 0.53066 0.49869
 O974 O 0.04619 0.52918 0.46286
 O975 O 0.00018 0.55481 0.52844
 O976 O -0.03421 0.54684 0.52991
 O977 O 0.03036 0.50006 0.55323
 O978 O 0.03033 0.46368 0.54351
 O979 O -0.05524 0.49717 0.47355
 O980 O -0.05135 0.53330 0.47978
 O981 O -0.00300 0.47540 0.44282
 O982 O 0.03538 0.47943 0.44786
 O983 O -0.02399 0.44431 0.49502
 O984 O -0.02047 0.44936 0.53328
 O985 O -0.05261 0.47081 0.49757
 O986 O -0.04322 0.47145 0.53621
 O987 O 0.00020 0.44675 0.46894
 O988 O 0.03857 0.45659 0.46991
 O989 O -0.02963 0.49901 0.44558
 O990 O -0.02421 0.53721 0.45369
 O991 O 0.05757 0.50406 0.52254
 O992 O 0.05206 0.46631 0.51855
 O993 O 0.00409 0.52416 0.55583
 O994 O -0.03407 0.51870 0.54935
 O995 O 0.02471 0.55734 0.50261
 O996 O 0.01771 0.55122 0.46451
 Zr997 Zr 0.02392 0.52787 0.48745
 O998 O 0.00562 0.50911 0.46721
 Zr999 Zr -0.01073 0.52366 0.52627
 O1000 O -0.03080 0.50526 0.50747
 Zr1001 Zr 0.02809 0.48898 0.52215
 O1002 O 0.00959 0.46869 0.50363
 Zr1003 Zr -0.02602 0.51219 0.47562
 O1004 O -0.00800 0.53277 0.49458
 Zr1005 Zr 0.01260 0.47723 0.47192
 O1006 O 0.03288 0.49610 0.49028
 Zr1007 Zr -0.02230 0.47350 0.51049
 O1008 O -0.00357 0.49172 0.53113
 O1009 O 0.02077 0.52055 0.51906
 O1010 O -0.01906 0.48041 0.47882
 C1011 C 0.06497 0.52003 0.51257
 C1012 C 0.01439 0.56487 0.51824
 C1013 C 0.01981 0.51399 0.56337
 C1014 C -0.06250 0.48100 0.48321
 C1015 C -0.01939 0.48473 0.43567
 C1016 C -0.01424 0.43692 0.47898
 H1017 H 0.00787 0.51346 0.45248
 H1018 H 0.01387 0.45396 0.50608
 H1019 H 0.02969 0.52952 0.52809
 H1020 H -0.04556 0.50776 0.51148
 H1021 H -0.04517 0.54678 0.48455
 H1022 H -0.04572 0.54315 0.52017
 H1023 H 0.03723 0.44608 0.48127
 H1024 H 0.05849 0.46885 0.50464
 H1025 H -0.03667 0.53630 0.44440
 H1026 H 0.02839 0.56249 0.46586
 H1027 H -0.00742 0.44137 0.53070
 H1028 H 0.01658 0.46278 0.55066
 H1029 H 0.05288 0.51516 0.46213
 H1030 H 0.03236 0.49224 0.43960
 H1031 H -0.03031 0.50559 0.55684
 H1032 H -0.05380 0.48271 0.53465
 O1033 O 0.55439 0.03198 0.50017
 O1034 O 0.54576 0.03020 0.46438
 O1035 O 0.49973 0.05650 0.52968
 O1036 O 0.46542 0.04847 0.53159
 O1037 O 0.52994 0.00173 0.55495
 O1038 O 0.52990 -0.03463 0.54551
 O1039 O 0.44433 -0.00159 0.47515
 O1040 O 0.44812 0.03454 0.48140
 O1041 O 0.49656 -0.02340 0.44473
 O1042 O 0.53487 -0.01963 0.44979
 O1043 O 0.47550 -0.05430 0.49724
 O1044 O 0.47885 -0.04891 0.53541
 O1045 O 0.44688 -0.02779 0.49935
 O1046 O 0.45618 -0.02668 0.53812
 O1047 O 0.49965 -0.05205 0.47112
 O1048 O 0.53797 -0.04231 0.47195
 O1049 O 0.47001 0.00032 0.44728
 O1050 O 0.47536 0.03851 0.45538
 O1051 O 0.55715 0.00552 0.52417
 O1052 O 0.55151 -0.03228 0.52047
 O1053 O 0.50382 0.02599 0.55745
 O1054 O 0.46559 0.02044 0.55106
 O1055 O 0.52427 0.05872 0.50383
 O1056 O 0.51734 0.05230 0.46584
 Zr1057 Zr 0.52349 0.02913 0.48900
 O1058 O 0.50514 0.01029 0.46892
 Zr1059 Zr 0.48889 0.02529 0.52791
 O1060 O 0.46874 0.00681 0.50922
 Zr1061 Zr 0.52762 -0.00950 0.52395
 O1062 O 0.50904 -0.02987 0.50561
 Zr1063 Zr 0.47351 0.01350 0.47733
 O1064 O 0.49159 0.03415 0.49615
 Zr1065 Zr 0.51208 -0.02157 0.47385
 O1066 O 0.53242 -0.00262 0.49204
 Zr1067 Zr 0.47714 -0.02495 0.51243
 O1068 O 0.49597 -0.00665 0.53293
 O1069 O 0.52038 0.02208 0.52067
 O1070 O 0.48041 -0.01828 0.48070
 C1071 C 0.56457 0.02141 0.51406
 C1072 C 0.51389 0.06646 0.51931
 C1073 C 0.51948 0.01575 0.56504
 C1074 C 0.43706 -0.01774 0.48483
 C1075 C 0.48029 -0.01398 0.43745
 C1076 C 0.48527 -0.06183 0.48129
 H1077 H 0.50741 0.01455 0.45417
 H1078 H 0.51329 -0.04458 0.50819
 H1079 H 0.52932 0.03112 0.52962
 H1080 H 0.45397 0.00936 0.51320
 H1081 H 0.45425 0.04805 0.48614
 H1082 H 0.45397 0.04484 0.52176
 H1083 H 0.53668 -0.05266 0.48345
 H1084 H 0.55798 -0.02981 0.50656
 H1085 H 0.46291 0.03759 0.44607
 H1086 H 0.52807 0.06355 0.46708
 H1087 H 0.49197 -0.05685 0.53302
 H1088 H 0.51613 -0.03554 0.55261
 H1089 H 0.55251 0.01620 0.46384
 H1090 H 0.53203 -0.00676 0.44157
 H1091 H 0.46938 0.00740 0.55863
 H1092 H 0.44549 -0.01556 0.53632
 O1093 O 0.49852 0.55461 0.03103
 O1094 O 0.46267 0.54593 0.02954
 O1095 O 0.52829 0.49992 0.05513
 O1096 O 0.52999 0.46549 0.04715
 O1097 O 0.55288 0.53014 0.00024
 O1098 O 0.54306 0.53011 -0.03602
 O1099 O 0.47357 0.44416 -0.00244
 O1100 O 0.47989 0.44807 0.03365
 O1101 O 0.44268 0.49652 -0.02396
 O1102 O 0.44759 0.53492 -0.02009
 O1103 O 0.49487 0.47549 -0.05514
 O1104 O 0.53312 0.47917 -0.05015
 O1105 O 0.49760 0.44685 -0.02872
 O1106 O 0.53610 0.45634 -0.02817
 O1107 O 0.46875 0.49968 -0.05269
 O1108 O 0.46960 0.53817 -0.04288
 O1109 O 0.44552 0.46983 -0.00040
 O1110 O 0.45378 0.47525 0.03771
 O1111 O 0.52226 0.55736 0.00440
 O1112 O 0.51808 0.55183 -0.03328
 O1113 O 0.55566 0.50391 0.02438
 O1114 O 0.54929 0.46562 0.01903
 O1115 O 0.50240 0.52444 0.05768
 O1116 O 0.46438 0.51743 0.05159
 Zr1117 Zr 0.48729 0.52362 0.02825
 O1118 O 0.46711 0.50518 0.00957
 Zr1119 Zr 0.52617 0.48897 0.02401
 O1120 O 0.50743 0.46878 0.00567
 Zr1121 Zr 0.52183 0.52782 -0.01067
 O1122 O 0.50337 0.50920 -0.03088
 Zr1123 Zr 0.47560 0.47347 0.01263
 O1124 O 0.49451 0.49163 0.03313
 Zr1125 Zr 0.47172 0.51217 -0.02228
 O1126 O 0.49001 0.53258 -0.00348
 Zr1127 Zr 0.51037 0.47727 -0.02605
 O1128 O 0.53094 0.49612 -0.00790
 O1129 O 0.51885 0.52053 0.02089
 O1130 O 0.47872 0.48044 -0.01911
 C1131 C 0.51236 0.56477 0.02040
 C1132 C 0.51801 0.51410 0.06521
 C1133 C 0.56310 0.51964 0.01412
 C1134 C 0.48328 0.43689 -0.01857
 C1135 C 0.43555 0.48013 -0.01459
 C1136 C 0.47882 0.48521 -0.06250
 H1137 H 0.45240 0.50741 0.01395
 H1138 H 0.50579 0.51348 -0.04559
 H1139 H 0.52788 0.52947 0.02984
 H1140 H 0.51149 0.45399 0.00816
 H1141 H 0.48469 0.45426 0.04710
 H1142 H 0.52025 0.45394 0.04353
 H1143 H 0.48092 0.53683 -0.05341
 H1144 H 0.50420 0.55828 -0.03067
 H1145 H 0.44453 0.46274 0.03682
 H1146 H 0.46571 0.52819 0.06282
 H1147 H 0.53038 0.49214 -0.05825
 H1148 H 0.55023 0.51633 -0.03696
 H1149 H 0.46204 0.55273 0.01558
 H1150 H 0.43955 0.53208 -0.00714
 H1151 H 0.55672 0.46937 0.00592
 H1152 H 0.53465 0.44580 -0.01686
 O1153 O 0.77578 0.30761 0.49661
 O1154 O 0.77085 0.30291 0.53298
 O1155 O 0.80782 0.25348 0.47564
 O1156 O 0.80380 0.21826 0.47791
 O1157 O 0.75400 0.27493 0.44287
 O1158 O 0.71694 0.27123 0.44843
 O1159 O 0.75077 0.19754 0.53070
 O1160 O 0.78658 0.20489 0.52794
 O1161 O 0.72093 0.25065 0.55325
 O1162 O 0.72110 0.28819 0.54407
 O1163 O 0.69752 0.22083 0.50031
 O1164 O 0.70657 0.22026 0.46306
 O1165 O 0.72664 0.19491 0.50443
 O1166 O 0.73112 0.20005 0.46504
 O1167 O 0.69497 0.24726 0.52424
 O1168 O 0.70081 0.28639 0.51955
 O1169 O 0.74674 0.22610 0.55576
 O1170 O 0.78481 0.23491 0.55100
 O1171 O 0.75119 0.30518 0.47066
 O1172 O 0.71420 0.29557 0.47099
 O1173 O 0.78007 0.25061 0.44534
 O1174 O 0.77810 0.21297 0.45573
 O1175 O 0.80533 0.28019 0.49936
 O1176 O 0.79557 0.27694 0.53706
 Zr1177 Zr 0.77457 0.27799 0.51120
 O1178 O 0.75566 0.25992 0.53138
 Zr1179 Zr 0.77807 0.23915 0.47629
 O1180 O 0.75987 0.21919 0.49534
 Zr1181 Zr 0.73955 0.27421 0.47255
 O1182 O 0.71937 0.25555 0.49089
 Zr1183 Zr 0.76274 0.22802 0.52698
 O1184 O 0.78332 0.24616 0.50823
 Zr1185 Zr 0.72403 0.26282 0.52273
 O1186 O 0.74264 0.28309 0.50421
 Zr1187 Zr 0.72802 0.22375 0.48821
 O1188 O 0.74636 0.24220 0.46750
 O1189 O 0.77108 0.27077 0.47960
 O1190 O 0.73103 0.23105 0.51986
 C1191 C 0.76546 0.31518 0.48097
 C1192 C 0.81536 0.26947 0.48549
 C1193 C 0.76966 0.26470 0.43530
 C1194 C 0.73636 0.18765 0.52059
 C1195 C 0.73083 0.23607 0.56309
 C1196 C 0.68763 0.23114 0.51455
 H1197 H 0.75812 0.26420 0.54611
 H1198 H 0.70469 0.25791 0.48648
 H1199 H 0.78003 0.27968 0.47059
 H1200 H 0.76423 0.20441 0.49330
 H1201 H 0.79976 0.21200 0.52382
 H1202 H 0.80012 0.20733 0.48829
 H1203 H 0.69149 0.28235 0.50779
 H1204 H 0.71432 0.30357 0.48433
 H1205 H 0.78406 0.22349 0.56155
 H1206 H 0.80574 0.28868 0.53569
 H1207 H 0.69792 0.23314 0.46249
 H1208 H 0.71873 0.25698 0.44242
 H1209 H 0.75647 0.30843 0.53107
 H1210 H 0.73364 0.28816 0.55323
 H1211 H 0.76550 0.21427 0.44673
 H1212 H 0.74267 0.19062 0.46934
 O1213 O 0.75193 0.77540 -0.05817
 O1214 O 0.71569 0.77061 -0.05326
 O1215 O 0.77364 0.80723 -0.00419
 O1216 O 0.77162 0.80330 0.03090
 O1217 O 0.80575 0.75304 -0.02592
 O1218 O 0.79986 0.71600 -0.02254
 O1219 O 0.71852 0.75049 0.05193
 O1220 O 0.72152 0.78640 0.04459
 O1221 O 0.69546 0.72053 -0.00074
 O1222 O 0.70418 0.72059 -0.03832
 O1223 O 0.74849 0.69693 0.02847
 O1224 O 0.78559 0.70575 0.02885
 O1225 O 0.74461 0.72617 0.05436
 O1226 O 0.78409 0.73060 0.04885
 O1227 O 0.72433 0.69439 0.00230
 O1228 O 0.72872 0.70027 -0.03691
 O1229 O 0.69333 0.74648 0.02376
 O1230 O 0.69820 0.78461 0.01479
 O1231 O 0.77763 0.75055 -0.05607
 O1232 O 0.77707 0.71344 -0.04653
 O1233 O 0.80368 0.77910 -0.00147
 O1234 O 0.79340 0.77738 0.03614
 O1235 O 0.74959 0.80499 -0.03057
 O1236 O 0.71187 0.79529 -0.02719
 Zr1237 Zr 0.73759 0.77418 -0.02848
 O1238 O 0.71745 0.75530 -0.01031
 Zr1239 Zr 0.77279 0.77744 0.01004
 O1240 O 0.75377 0.75938 0.03011
 Zr1241 Zr 0.77594 0.73885 -0.02512
 O1242 O 0.75768 0.71873 -0.00629
 Zr1243 Zr 0.72213 0.76243 0.02150
 O1244 O 0.74088 0.78294 0.00330
 Zr1245 Zr 0.72583 0.72352 -0.01326
 O1246 O 0.74426 0.74211 -0.03367
 Zr1247 Zr 0.76067 0.72744 0.02545
 O1248 O 0.78132 0.74563 0.00683
 O1249 O 0.76921 0.77050 -0.02154
 O1250 O 0.72902 0.73060 0.01842
 C1251 C 0.76735 0.76491 -0.06594
 C1252 C 0.76363 0.81493 -0.01995
 C1253 C 0.81357 0.76854 -0.01556
 C1254 C 0.72856 0.73597 0.06171
 C1255 C 0.68586 0.73048 0.01395
 C1256 C 0.73413 0.68703 0.01833
 H1257 H 0.70270 0.75782 -0.01446
 H1258 H 0.76197 0.70400 -0.00868
 H1259 H 0.77824 0.77941 -0.03048
 H1260 H 0.75595 0.76376 0.04486
 H1261 H 0.72559 0.79959 0.03742
 H1262 H 0.76112 0.79983 0.04176
 H1263 H 0.74036 0.69080 -0.03291
 H1264 H 0.76369 0.71369 -0.05443
 H1265 H 0.68776 0.78395 0.02630
 H1266 H 0.71325 0.80555 -0.03884
 H1267 H 0.78620 0.69724 0.01586
 H1268 H 0.80594 0.71760 -0.00831
 H1269 H 0.71732 0.75610 -0.05867
 H1270 H 0.69523 0.73329 -0.03831
 H1271 H 0.80236 0.76475 0.03476
 H1272 H 0.77970 0.74191 0.05858
 O1273 O 1.00009 0.19476 0.21878
 O1274 O 0.96434 0.20348 0.22022
 O1275 O 1.02975 0.24964 0.19444
 O1276 O 1.03168 0.28401 0.20250
 O1277 O 1.05470 0.21925 0.24917
 O1278 O 1.04518 0.21948 0.28554
 O1279 O 0.97532 0.30519 0.25217
 O1280 O 0.98161 0.30135 0.21605
 O1281 O 0.94460 0.25289 0.27368
 O1282 O 0.94960 0.21443 0.26990
 O1283 O 0.99702 0.27398 0.30484
 O1284 O 1.03521 0.27040 0.29971
 O1285 O 0.99940 0.30257 0.27849
 O1286 O 1.03804 0.29322 0.27763
 O1287 O 0.97074 0.24991 0.30242
 O1288 O 0.97164 0.21138 0.29277
 O1289 O 0.94736 0.27954 0.25007
 O1290 O 0.95548 0.27412 0.21200
 O1291 O 1.02393 0.19204 0.24537
 O1292 O 1.02017 0.19773 0.28302
 O1293 O 1.05732 0.24551 0.22506
 O1294 O 1.05103 0.28384 0.23059
 O1295 O 1.00396 0.22497 0.19201
 O1296 O 0.96596 0.23194 0.19819
 Zr1297 Zr 0.98898 0.22579 0.22147
 O1298 O 0.96890 0.24422 0.24018
 Zr1299 Zr 1.02788 0.26048 0.22560
 O1300 O 1.00923 0.28069 0.24396
 Zr1301 Zr 1.02374 0.22166 0.26030
 O1302 O 1.00537 0.24028 0.28054
 Zr1303 Zr 0.97739 0.27593 0.23706
 O1304 O 0.99619 0.25777 0.21654
 Zr1305 Zr 0.97366 0.23729 0.27204
 O1306 O 0.99187 0.21688 0.25322
 Zr1307 Zr 1.01233 0.27223 0.27567
 O1308 O 1.03282 0.25337 0.25750
 O1309 O 1.02058 0.22891 0.22874
 O1310 O 0.98065 0.26901 0.26880
 C1311 C 1.01388 0.18457 0.22946
 C1312 C 1.01946 0.23542 0.18440
 C1313 C 1.06481 0.22975 0.23522
 C1314 C 0.98497 0.31244 0.26839
 C1315 C 0.93744 0.26926 0.26428
 C1316 C 0.98092 0.26436 0.31221
 H1317 H 0.95417 0.24197 0.23583
 H1318 H 1.00785 0.23603 0.29525
 H1319 H 1.02951 0.21992 0.21976
 H1320 H 1.01326 0.29548 0.24145
 H1321 H 0.98633 0.29517 0.20258
 H1322 H 1.02189 0.29550 0.20608
 H1323 H 0.98298 0.21280 0.30329
 H1324 H 1.00619 0.19137 0.28060
 H1325 H 0.94627 0.28664 0.21285
 H1326 H 0.96726 0.22122 0.18693
 H1327 H 1.03261 0.25736 0.30774
 H1328 H 1.05240 0.23324 0.28636
 H1329 H 0.96368 0.19677 0.23422
 H1330 H 0.94139 0.21734 0.25705
 H1331 H 1.05858 0.28002 0.24363
 H1332 H 1.03638 0.30387 0.26644
 O1333 O 0.75067 1.05457 0.71964
 O1334 O 0.78644 1.04569 0.72118
 O1335 O 0.72066 1.00004 0.69516
 O1336 O 0.71877 0.96556 0.70305
 O1337 O 0.69598 1.03040 0.74993
 O1338 O 0.70553 1.03012 0.78629
 O1339 O 0.77488 0.94399 0.75277
 O1340 O 0.76867 0.94794 0.71669
 O1341 O 0.80595 0.99627 0.77448
 O1342 O 0.80110 1.03480 0.77066
 O1343 O 0.75367 0.97544 0.80554
 O1344 O 0.71542 0.97922 0.80048
 O1345 O 0.75080 0.94674 0.77901
 O1346 O 0.71239 0.95638 0.77844
 O1347 O 0.77995 0.99948 0.80313
 O1348 O 0.77926 1.03789 0.79363
 O1349 O 0.80307 0.96956 0.75088
 O1350 O 0.79494 0.97500 0.71279
 O1351 O 0.72685 1.05743 0.74619
 O1352 O 0.73066 1.05178 0.78385
 O1353 O 0.69318 1.00414 0.72576
 O1354 O 0.69930 0.96582 0.73109
 O1355 O 0.74667 1.02447 0.69285
 O1356 O 0.78458 1.01725 0.69898
 Zr1357 Zr 0.76167 1.02352 0.72231
 O1358 O 0.78169 1.00499 0.74097
 Zr1359 Zr 0.72258 0.98905 0.72627
 O1360 O 0.74116 0.96877 0.74464
 Zr1361 Zr 0.72695 1.02783 0.76109
 O1362 O 0.74529 1.00916 0.78131
 Zr1363 Zr 0.77304 0.97332 0.73779
 O1364 O 0.75429 0.99157 0.71728
 Zr1365 Zr 0.77698 1.01201 0.77280
 O1366 O 0.75883 1.03249 0.75405
 Zr1367 Zr 0.73819 0.97724 0.77639
 O1368 O 0.71774 0.99616 0.75821
 O1369 O 0.73005 1.02057 0.72953
 O1370 O 0.76987 0.98030 0.76954
 C1371 C 0.73689 1.06482 0.73028
 C1372 C 0.73104 1.01422 0.68521
 C1373 C 0.68578 1.01996 0.73595
 C1374 C 0.76510 0.93674 0.76885
 C1375 C 0.81304 0.97985 0.76511
 C1376 C 0.76982 0.98506 0.81290
 H1377 H 0.79642 1.00717 0.73664
 H1378 H 0.74286 1.01345 0.79602
 H1379 H 0.72113 1.02959 0.72057
 H1380 H 0.73703 0.95400 0.74210
 H1381 H 0.76398 0.95414 0.70323
 H1382 H 0.72836 0.95393 0.70675
 H1383 H 0.76782 1.03665 0.80403
 H1384 H 0.74464 1.05811 0.78143
 H1385 H 0.80412 0.96245 0.71365
 H1386 H 0.78338 1.02806 0.68782
 H1387 H 0.71815 0.99222 0.80857
 H1388 H 0.69830 1.01637 0.78710
 H1389 H 0.78703 1.05253 0.73514
 H1390 H 0.80937 1.03173 0.75789
 H1391 H 0.69186 0.96960 0.74420
 H1392 H 0.71372 0.94594 0.76699
 O1393 O 0.69618 0.53051 0.24922
 O1394 O 0.70509 0.52922 0.28497
 O1395 O 0.75060 0.55477 0.21906
 O1396 O 0.78501 0.54685 0.21743
 O1397 O 0.72027 0.50001 0.19445
 O1398 O 0.72046 0.46360 0.20405
 O1399 O 0.80632 0.49713 0.27372
 O1400 O 0.80258 0.53325 0.26732
 O1401 O 0.75424 0.47571 0.30466
 O1402 O 0.71582 0.47956 0.29971
 O1403 O 0.77493 0.44433 0.25224
 O1404 O 0.77126 0.44936 0.21399
 O1405 O 0.80355 0.47070 0.24971
 O1406 O 0.79406 0.47144 0.21104
 O1407 O 0.75101 0.44686 0.27856
 O1408 O 0.71267 0.45653 0.27781
 O1409 O 0.78087 0.49933 0.30177
 O1410 O 0.77554 0.53745 0.29351
 O1411 O 0.69325 0.50388 0.22536
 O1412 O 0.69886 0.46618 0.22914
 O1413 O 0.74654 0.52410 0.19169
 O1414 O 0.78473 0.51863 0.19789
 O1415 O 0.72625 0.55727 0.24508
 O1416 O 0.73352 0.55128 0.28310
 Zr1417 Zr 0.72717 0.52786 0.26020
 O1418 O 0.74559 0.50918 0.28029
 Zr1419 Zr 0.76156 0.52364 0.22114
 O1420 O 0.78175 0.50527 0.23980
 Zr1421 Zr 0.72278 0.48891 0.22547
 O1422 O 0.74138 0.46868 0.24388
 Zr1423 Zr 0.77718 0.51227 0.27167
 O1424 O 0.75904 0.53280 0.25286
 Zr1425 Zr 0.73855 0.47729 0.27561
 O1426 O 0.71817 0.49608 0.25738
 Zr1427 Zr 0.77323 0.47350 0.23683
 O1428 O 0.75438 0.49167 0.21631
 O1429 O 0.73010 0.52049 0.22856
 O1430 O 0.77017 0.48048 0.26852
 C1431 C 0.68591 0.51982 0.23546
 C1432 C 0.73645 0.56481 0.22939
 C1433 C 0.73074 0.51394 0.18426
 C1434 C 0.81347 0.48086 0.26411
 C1435 C 0.77062 0.48515 0.31177
 C1436 C 0.76534 0.43700 0.26838
 H1437 H 0.74342 0.51358 0.29503
 H1438 H 0.73708 0.45395 0.24144
 H1439 H 0.72109 0.52943 0.21961
 H1440 H 0.79650 0.50774 0.23572
 H1441 H 0.79644 0.54672 0.26253
 H1442 H 0.79669 0.54303 0.22691
 H1443 H 0.71392 0.44605 0.26639
 H1444 H 0.69259 0.46863 0.24314
 H1445 H 0.78806 0.53660 0.30273
 H1446 H 0.72282 0.56254 0.28182
 H1447 H 0.75820 0.44138 0.21660
 H1448 H 0.73415 0.46277 0.19678
 H1449 H 0.69834 0.51522 0.28569
 H1450 H 0.71889 0.49236 0.30799
 H1451 H 0.78095 0.50547 0.19047
 H1452 H 0.80473 0.48263 0.21265
 O1453 O 0.55519 0.22059 0.75033
 O1454 O 0.54655 0.22190 0.78616
 O1455 O 0.50056 0.19615 0.72048
 O1456 O 0.46628 0.20410 0.71846
 O1457 O 0.53070 0.25137 0.69591
 O1458 O 0.53047 0.28765 0.70580
 O1459 O 0.44492 0.25339 0.77522
 O1460 O 0.44894 0.21729 0.76879
 O1461 O 0.49708 0.27513 0.80627
 O1462 O 0.53542 0.27152 0.80134
 O1463 O 0.47592 0.30641 0.75410
 O1464 O 0.47959 0.30154 0.71578
 O1465 O 0.44748 0.27987 0.75132
 O1466 O 0.45689 0.27936 0.71272
 O1467 O 0.50000 0.30399 0.78034
 O1468 O 0.53848 0.29448 0.77938
 O1469 O 0.47051 0.25143 0.80332
 O1470 O 0.47609 0.21332 0.79496
 O1471 O 0.55784 0.24731 0.72662
 O1472 O 0.55215 0.28501 0.73088
 O1473 O 0.50462 0.22707 0.69306
 O1474 O 0.46636 0.23229 0.69938
 O1475 O 0.52514 0.19370 0.74634
 O1476 O 0.51820 0.19971 0.78439
 Zr1477 Zr 0.52427 0.22315 0.76150
 O1478 O 0.50582 0.24170 0.78173
 Zr1479 Zr 0.48968 0.22731 0.72254
 O1480 O 0.46947 0.24550 0.74133
 Zr1481 Zr 0.52830 0.26222 0.72702
 O1482 O 0.50965 0.28232 0.74553
 Zr1483 Zr 0.47420 0.23848 0.77318
 O1484 O 0.49238 0.21811 0.75421
 Zr1485 Zr 0.51266 0.27365 0.77720
 O1486 O 0.53308 0.25498 0.75887
 Zr1487 Zr 0.47781 0.27732 0.73849
 O1488 O 0.49669 0.25932 0.71786
 O1489 O 0.52115 0.23057 0.72991
 O1490 O 0.48102 0.27030 0.77015
 C1491 C 0.56531 0.23134 0.73654
 C1492 C 0.51473 0.18609 0.73078
 C1493 C 0.52028 0.23743 0.68565
 C1494 C 0.43762 0.26959 0.76562
 C1495 C 0.48074 0.26566 0.81335
 C1496 C 0.48552 0.31375 0.77027
 H1497 H 0.50807 0.23730 0.79645
 H1498 H 0.51385 0.29708 0.74316
 H1499 H 0.53010 0.22164 0.72088
 H1500 H 0.45472 0.24294 0.73724
 H1501 H 0.45517 0.20386 0.76399
 H1502 H 0.45487 0.20747 0.72840
 H1503 H 0.53702 0.30509 0.76813
 H1504 H 0.55858 0.28241 0.74480
 H1505 H 0.46361 0.21411 0.80420
 H1506 H 0.52896 0.18851 0.78305
 H1507 H 0.49251 0.30971 0.71856
 H1508 H 0.51671 0.28855 0.69864
 H1509 H 0.55324 0.23593 0.78688
 H1510 H 0.53261 0.25854 0.80939
 H1511 H 0.47011 0.24542 0.69194
 H1512 H 0.44636 0.26803 0.71420
 O1513 O 0.25369 0.77606 0.44449
 O1514 O 0.21743 0.77111 0.44929
 O1515 O 0.27473 0.80862 0.49841
 O1516 O 0.27233 0.80478 0.53362
 O1517 O 0.30754 0.75474 0.47720
 O1518 O 0.30211 0.71759 0.48103
 O1519 O 0.21985 0.75147 0.55453
 O1520 O 0.22253 0.78735 0.54710
 O1521 O 0.19738 0.72122 0.50160
 O1522 O 0.20659 0.72133 0.46401
 O1523 O 0.25023 0.69810 0.53144
 O1524 O 0.28754 0.70736 0.53187
 O1525 O 0.24613 0.72737 0.55720
 O1526 O 0.28543 0.73197 0.55208
 O1527 O 0.22634 0.69537 0.50504
 O1528 O 0.23103 0.70097 0.46597
 O1529 O 0.19481 0.74717 0.52607
 O1530 O 0.19945 0.78533 0.51715
 O1531 O 0.27968 0.75154 0.44697
 O1532 O 0.27960 0.71458 0.45675
 O1533 O 0.30502 0.78096 0.50143
 O1534 O 0.29464 0.77914 0.53900
 O1535 O 0.25100 0.80589 0.47179
 O1536 O 0.21336 0.79600 0.47514
 Zr1537 Zr 0.23922 0.77503 0.47412
 O1538 O 0.21912 0.75608 0.49223
 Zr1539 Zr 0.27410 0.77888 0.51286
 O1540 O 0.25514 0.76063 0.53286
 Zr1541 Zr 0.27793 0.74010 0.47798
 O1542 O 0.25966 0.71988 0.49666
 Zr1543 Zr 0.22352 0.76335 0.52406
 O1544 O 0.24218 0.78398 0.50588
 Zr1545 Zr 0.22784 0.72440 0.48940
 O1546 O 0.24630 0.74304 0.46911
 Zr1547 Zr 0.26232 0.72871 0.52839
 O1548 O 0.28296 0.74712 0.50992
 O1549 O 0.27081 0.77170 0.48130
 O1550 O 0.23070 0.73158 0.52110
 C1551 C 0.26927 0.76567 0.43692
 C1552 C 0.26485 0.81605 0.48243
 C1553 C 0.31508 0.77050 0.48739
 C1554 C 0.22996 0.73707 0.56442
 C1555 C 0.18754 0.73113 0.51616
 C1556 C 0.23599 0.68812 0.52119
 H1557 H 0.20439 0.75847 0.48796
 H1558 H 0.26409 0.70517 0.49435
 H1559 H 0.27978 0.78064 0.47234
 H1560 H 0.25717 0.76507 0.54760
 H1561 H 0.22658 0.80056 0.53996
 H1562 H 0.26209 0.80103 0.54464
 H1563 H 0.24282 0.69171 0.47003
 H1564 H 0.26621 0.71448 0.44887
 H1565 H 0.18892 0.78458 0.52858
 H1566 H 0.21471 0.80616 0.46341
 H1567 H 0.28796 0.69847 0.51913
 H1568 H 0.30804 0.71943 0.49529
 H1569 H 0.21927 0.75663 0.44391
 H1570 H 0.19721 0.73371 0.46420
 H1571 H 0.30362 0.76651 0.53778
 H1572 H 0.28115 0.74364 0.56142
 O1573 O 0.27464 0.30590 0.99714
 O1574 O 0.26961 0.30101 1.03346
 O1575 O 0.30699 0.25203 0.97599
 O1576 O 0.30311 0.21678 0.97805
 O1577 O 0.25315 0.27341 0.94319
 O1578 O 0.21608 0.26947 0.94864
 O1579 O 0.25014 0.19553 1.03059
 O1580 O 0.28590 0.20310 1.02795
 O1581 O 0.22005 0.24845 1.05340
 O1582 O 0.21998 0.28604 1.04433
 O1583 O 0.19682 0.21867 1.00035
 O1584 O 0.20586 0.21841 0.96306
 O1585 O 0.22612 0.19290 1.00422
 O1586 O 0.23052 0.19835 0.96489
 O1587 O 0.19410 0.24500 1.02437
 O1588 O 0.19967 0.28416 1.01985
 O1589 O 0.24589 0.22394 1.05583
 O1590 O 0.28392 0.23297 1.05118
 O1591 O 0.25011 0.30350 0.97113
 O1592 O 0.21317 0.29370 0.97130
 O1593 O 0.27933 0.24920 0.94560
 O1594 O 0.27749 0.21150 0.95577
 O1595 O 0.30431 0.27858 0.99987
 O1596 O 0.29446 0.27517 1.03750
 Zr1597 Zr 0.27353 0.27621 1.01159
 O1598 O 0.25468 0.25794 1.03163
 Zr1599 Zr 0.27730 0.23757 0.97648
 O1600 O 0.25915 0.21743 0.99538
 Zr1601 Zr 0.23862 0.27245 0.97283
 O1602 O 0.21849 0.25361 0.99104
 Zr1603 Zr 0.26193 0.22610 1.02708
 O1604 O 0.28245 0.24444 1.00847
 Zr1605 Zr 0.22306 0.26074 1.02293
 O1606 O 0.24160 0.28120 1.00454
 Zr1607 Zr 0.22730 0.22187 0.98822
 O1608 O 0.24560 0.24051 0.96764
 O1609 O 0.27015 0.26914 0.97994
 O1610 O 0.23022 0.22901 1.01992
 C1611 C 0.26431 0.31351 0.98152
 C1612 C 0.31443 0.26799 0.98598
 C1613 C 0.26888 0.26330 0.93561
 C1614 C 0.23584 0.18560 1.02036
 C1615 C 0.22997 0.23387 1.06320
 C1616 C 0.18687 0.22885 1.01464
 H1617 H 0.25710 0.26216 1.04639
 H1618 H 0.20380 0.25591 0.98663
 H1619 H 0.27909 0.27813 0.97100
 H1620 H 0.26359 0.20268 0.99327
 H1621 H 0.29905 0.21031 1.02388
 H1622 H 0.29945 0.20575 0.98833
 H1623 H 0.19041 0.28013 1.00803
 H1624 H 0.21317 0.30158 0.98472
 H1625 H 0.28323 0.22148 1.06166
 H1626 H 0.30456 0.28697 1.03622
 H1627 H 0.19713 0.23124 0.96257
 H1628 H 0.21794 0.25524 0.94259
 H1629 H 0.25522 0.30650 1.03150
 H1630 H 0.23249 0.28602 1.05353
 H1631 H 0.26492 0.21281 0.94674
 H1632 H 0.24216 0.18898 0.96910
 C1633 C 0.28451 0.37896 0.79091
 C1634 C 0.30110 0.39646 0.79203
 C1635 C 0.29417 0.41541 0.78502
 C1636 C 0.27123 0.41529 0.77758
 C1637 C 0.27011 0.39778 0.76097
 C1638 C 0.27707 0.37877 0.76794
 C1639 C 0.26569 0.38763 0.80342
 C1640 C 0.25879 0.40664 0.79643
 H1641 H 0.31687 0.39416 0.79802
 H1642 H 0.30406 0.42930 0.78499
 H1643 H 0.26419 0.40009 0.74515
 H1644 H 0.27711 0.36482 0.75810
 H1645 H 0.25824 0.37989 0.81656
 H1646 H 0.24565 0.41466 0.80370
 C1647 C 0.28384 -0.12230 0.29075
 C1648 C 0.30073 -0.10509 0.29232
 C1649 C 0.29426 -0.08594 0.28539
 C1650 C 0.27145 -0.08557 0.27760
 C1651 C 0.27026 -0.10289 0.26079
 C1652 C 0.27671 -0.12210 0.26765
 C1653 C 0.26492 -0.11337 0.30302
 C1654 C 0.25854 -0.09417 0.29612
 H1655 H 0.31636 -0.10770 0.29855
 H1656 H 0.30440 -0.07222 0.28566
 H1657 H 0.26459 -0.10030 0.24492
 H1658 H 0.27655 -0.13593 0.25765
 H1659 H 0.25674 -0.12117 0.31569
 H1660 H 0.24527 -0.08608 0.30309
 C1661 C 0.78366 0.87859 0.79008
 C1662 C 0.80067 0.89570 0.79144
 C1663 C 0.79431 0.91485 0.78440
 C1664 C 0.77146 0.91534 0.77672
 C1665 C 0.77005 0.89792 0.76005
 C1666 C 0.77641 0.87870 0.76701
 C1667 C 0.76489 0.88776 0.80240
 C1668 C 0.75860 0.90696 0.79539
 H1669 H 0.81632 0.89303 0.79762
 H1670 H 0.80453 0.92850 0.78456
 H1671 H 0.76431 0.90043 0.74419
 H1672 H 0.77612 0.86481 0.75710
 H1673 H 0.75685 0.88020 0.81530
 H1674 H 0.74552 0.91525 0.80247
 C1675 C 0.46720 0.87368 0.29034
 C1676 C 0.45109 0.85603 0.29367
 C1677 C 0.45765 0.83688 0.28687
 C1678 C 0.47979 0.83693 0.27742
 C1679 C 0.47915 0.85366 0.26004
 C1680 C 0.47258 0.87290 0.26678
 C1681 C 0.48734 0.86585 0.30137
 C1682 C 0.49382 0.84659 0.29463
 H1683 H 0.43586 0.85839 0.30091
 H1684 H 0.44799 0.82288 0.28827
 H1685 H 0.48374 0.85070 0.24390
 H1686 H 0.47160 0.88639 0.25640
 H1687 H 0.49650 0.87469 0.31266
 H1688 H 0.50809 0.83936 0.30047
 C1689 C -0.03376 0.87255 0.79028
 C1690 C -0.04992 0.85490 0.79350
 C1691 C -0.04342 0.83580 0.78654
 C1692 C -0.02129 0.83586 0.77705
 C1693 C -0.02192 0.85273 0.75980
 C1694 C -0.02842 0.87194 0.76671
 C1695 C -0.01363 0.86458 0.80122
 C1696 C -0.00721 0.84536 0.79431
 H1697 H -0.06513 0.85725 0.80078
 H1698 H -0.05311 0.82181 0.78783
 H1699 H -0.01736 0.84988 0.74363
 H1700 H -0.02938 0.88551 0.75643
 H1701 H -0.00444 0.87330 0.81257
 H1702 H 0.00705 0.83805 0.80007
 C1703 C -0.03387 -0.12298 -0.03978
 C1704 C -0.02640 -0.12267 -0.01683
 C1705 C -0.02000 -0.10339 -0.01005
 C1706 C -0.02164 -0.08612 -0.02683
 C1707 C -0.00897 -0.09464 -0.04560
 C1708 C -0.01532 -0.11393 -0.05239
 C1709 C -0.05096 -0.10600 -0.04105
 C1710 C -0.04458 -0.08676 -0.03424
 H1711 H -0.02601 -0.13649 -0.00686
 H1712 H -0.01414 -0.10070 0.00574
 H1713 H 0.00397 -0.08636 -0.05293
 H1714 H -0.00758 -0.12168 -0.06538
 H1715 H -0.06667 -0.10885 -0.04700
 H1716 H -0.05485 -0.07315 -0.03435
 C1717 C -0.03374 0.37911 0.45756
 C1718 C -0.02617 0.37901 0.48053
 C1719 C -0.01950 0.39812 0.48756
 C1720 C -0.02091 0.41564 0.47103
 C1721 C -0.00840 0.40721 0.45213
 C1722 C -0.01501 0.38812 0.44507
 C1723 C -0.05056 0.39641 0.45656
 C1724 C -0.04387 0.41543 0.46366
 H1725 H -0.02589 0.36506 0.49032
 H1726 H -0.01353 0.40050 0.50336
 H1727 H 0.00474 0.41536 0.44500
 H1728 H -0.00714 0.38047 0.43209
 H1729 H -0.06632 0.39393 0.45058
 H1730 H -0.05395 0.42919 0.46379
 C1731 C 0.46630 -0.12009 0.46063
 C1732 C 0.47343 -0.11972 0.48373
 C1733 C 0.47993 -0.10045 0.49051
 C1734 C 0.47876 -0.08327 0.47363
 C1735 C 0.49165 -0.09202 0.45513
 C1736 C 0.48523 -0.11126 0.44832
 C1737 C 0.44945 -0.10287 0.45899
 C1738 C 0.45595 -0.08368 0.46583
 H1739 H 0.47358 -0.13348 0.49380
 H1740 H 0.48558 -0.09775 0.50637
 H1741 H 0.50491 -0.08398 0.44810
 H1742 H 0.49337 -0.11914 0.43566
 H1743 H 0.43380 -0.10552 0.45278
 H1744 H 0.44584 -0.06996 0.46551
 C1745 C 0.46444 0.37897 -0.04028
 C1746 C 0.48335 0.38807 -0.05240
 C1747 C 0.48971 0.40719 -0.04523
 C1748 C 0.47680 0.41557 -0.02657
 C1749 C 0.45399 0.41524 -0.03437
 C1750 C 0.44754 0.39617 -0.04158
 C1751 C 0.47157 0.37891 -0.01717
 C1752 C 0.47801 0.39807 -0.01002
 H1753 H 0.49164 0.38037 -0.06507
 H1754 H 0.50304 0.41533 -0.05203
 H1755 H 0.44383 0.42894 -0.03441
 H1756 H 0.43189 0.39359 -0.04782
 H1757 H 0.47177 0.36496 -0.00738
 H1758 H 0.48367 0.40048 0.00589
 C1759 C 0.78451 0.37308 0.45990
 C1760 C 0.77868 0.37282 0.48333
 C1761 C 0.77204 0.35370 0.49032
 C1762 C 0.77182 0.33659 0.47326
 C1763 C 0.75815 0.34579 0.45554
 C1764 C 0.76473 0.36491 0.44856
 C1765 C 0.80079 0.35550 0.45727
 C1766 C 0.79417 0.33646 0.46428
 H1767 H 0.77949 0.38654 0.49344
 H1768 H 0.76718 0.35105 0.50643
 H1769 H 0.74416 0.33826 0.44935
 H1770 H 0.75608 0.37338 0.43662
 H1771 H 0.81615 0.35784 0.45034
 H1772 H 0.80393 0.32250 0.46337
 C1773 C 0.78332 0.87286 -0.04043
 C1774 C 0.79913 0.85495 -0.04383
 C1775 C 0.79230 0.83594 -0.03699
 C1776 C 0.77021 0.83635 -0.02741
 C1777 C 0.77122 0.85313 -0.01005
 C1778 C 0.77806 0.87225 -0.01685
 C1779 C 0.76300 0.86529 -0.05135
 C1780 C 0.75625 0.84616 -0.04455
 H1781 H 0.81436 0.85706 -0.05114
 H1782 H 0.80173 0.82179 -0.03840
 H1783 H 0.76666 0.85030 0.00612
 H1784 H 0.77931 0.88576 -0.00648
 H1785 H 0.75392 0.87422 -0.06261
 H1786 H 0.74183 0.83912 -0.05031
 C1787 C 0.79035 0.28365 0.37730
 C1788 C 0.79286 0.30012 0.39477
 C1789 C 0.78599 0.29354 0.41384
 C1790 C 0.77724 0.27102 0.41386
 C1791 C 0.76015 0.27093 0.39682
 C1792 C 0.76701 0.27753 0.37767
 C1793 C 0.80190 0.26401 0.38553
 C1794 C 0.79504 0.25746 0.40468
 H1795 H 0.79964 0.31558 0.39234
 H1796 H 0.78685 0.30342 0.42773
 H1797 H 0.74411 0.26589 0.39953
 H1798 H 0.75687 0.27814 0.36399
 H1799 H 0.81391 0.25543 0.37711
 H1800 H 0.80141 0.24359 0.41227
 C1801 C 0.78770 0.78357 -0.12423
 C1802 C 0.76406 0.77867 -0.12335
 C1803 C 0.75732 0.77219 -0.10411
 C1804 C 0.77478 0.77114 -0.08748
 C1805 C 0.79157 0.75675 -0.09725
 C1806 C 0.79832 0.76313 -0.11650
 C1807 C 0.79152 0.79961 -0.10657
 C1808 C 0.78473 0.79313 -0.08743
 H1809 H 0.75362 0.77989 -0.13676
 H1810 H 0.74112 0.76791 -0.10109
 H1811 H 0.79715 0.74231 -0.09009
 H1812 H 0.80935 0.75375 -0.12538
 H1813 H 0.79907 0.81473 -0.10892
 H1814 H 0.78645 0.80275 -0.07343
 C1815 C 0.29051 0.46495 0.87097
 C1816 C 0.29097 0.44790 0.85386
 C1817 C 0.28389 0.45456 0.83485
 C1818 C 0.27703 0.47772 0.83455
 C1819 C 0.26071 0.47963 0.85217
 C1820 C 0.26776 0.47295 0.87123
 C1821 C 0.30333 0.48332 0.86177
 C1822 C 0.29627 0.48995 0.84272
 H1823 H 0.29657 0.43200 0.85647
 H1824 H 0.28340 0.44433 0.82120
 H1825 H 0.24502 0.48585 0.84988
 H1826 H 0.25813 0.47347 0.88526
 H1827 H 0.31665 0.49077 0.86926
 H1828 H 0.30372 0.50281 0.83439
 C1829 C 0.29260 -0.03473 0.37068
 C1830 C 0.26979 -0.02681 0.37109
 C1831 C 0.26250 -0.02035 0.35204
 C1832 C 0.27863 -0.02231 0.33426
 C1833 C 0.29788 -0.00991 0.34214
 C1834 C 0.30521 -0.01631 0.36116
 C1835 C 0.29299 -0.05190 0.35364
 C1836 C 0.28563 -0.04541 0.33467
 H1837 H 0.26028 -0.02614 0.38521
 H1838 H 0.24677 -0.01420 0.34988
 H1839 H 0.30511 0.00298 0.33364
 H1840 H 0.31851 -0.00857 0.36836
 H1841 H 0.29874 -0.06774 0.35625
 H1842 H 0.28506 -0.05574 0.32110
 C1843 C -0.04131 -0.03545 -0.12098
 C1844 C -0.04249 -0.05233 -0.10375
 C1845 C -0.03537 -0.04574 -0.08472
 C1846 C -0.02778 -0.02281 -0.08446
 C1847 C -0.01124 -0.02153 -0.10192
 C1848 C -0.01830 -0.02811 -0.12103
 C1849 C -0.05361 -0.01655 -0.11196
 C1850 C -0.04652 -0.01004 -0.09287
 H1851 H -0.04860 -0.06807 -0.10628
 H1852 H -0.03534 -0.05587 -0.07101
 H1853 H 0.00460 -0.01573 -0.09950
 H1854 H -0.00850 -0.02790 -0.13495
 H1855 H -0.06638 -0.00843 -0.11966
 H1856 H -0.05346 0.00326 -0.08476
 C1857 C -0.04164 0.46422 0.37857
 C1858 C -0.01881 0.47207 0.37792
 C1859 C -0.01149 0.47909 0.39679
 C1860 C -0.02761 0.47767 0.41463
 C1861 C -0.04683 0.48987 0.40648
 C1862 C -0.05420 0.48292 0.38766
 C1863 C -0.04206 0.44755 0.39605
 C1864 C -0.03466 0.45458 0.41482
 H1865 H -0.00932 0.47228 0.36379
 H1866 H 0.00427 0.48528 0.39877
 H1867 H -0.05408 0.50293 0.41471
 H1868 H -0.06762 0.49035 0.38039
 H1869 H -0.04788 0.43165 0.39388
 H1870 H -0.03411 0.44464 0.42866
 C1871 C 0.45923 -0.03380 0.37977
 C1872 C 0.48191 -0.02561 0.37960
 C1873 C 0.48881 -0.01882 0.39869
 C1874 C 0.47243 -0.02081 0.41624
 C1875 C 0.45314 -0.00877 0.40798
 C1876 C 0.44621 -0.01552 0.38891
 C1877 C 0.45880 -0.05081 0.39687
 C1878 C 0.46574 -0.04403 0.41591
 H1879 H 0.49160 -0.02505 0.36562
 H1880 H 0.50444 -0.01245 0.40104
 H1881 H 0.44554 0.00403 0.41630
 H1882 H 0.43285 -0.00823 0.38138
 H1883 H 0.45333 -0.06676 0.39425
 H1884 H 0.46623 -0.05421 0.42957
 C1885 C 0.45736 0.46535 -0.12007
 C1886 C 0.45616 0.44868 -0.10264
 C1887 C 0.46328 0.45551 -0.08370
 C1888 C 0.47087 0.47843 -0.08370
 C1889 C 0.48742 0.47950 -0.10117
 C1890 C 0.48037 0.47268 -0.12020
 C1891 C 0.44505 0.48436 -0.11128
 C1892 C 0.45214 0.49110 -0.09226
 H1893 H 0.45004 0.43292 -0.10497
 H1894 H 0.46330 0.44554 -0.06987
 H1895 H 0.50326 0.48534 -0.09882
 H1896 H 0.49017 0.47272 -0.13413
 H1897 H 0.43221 0.49232 -0.11902
 H1898 H 0.44516 0.50446 -0.08427
 C1899 C 0.46141 0.78447 0.37399
 C1900 C 0.48476 0.77848 0.37343
 C1901 C 0.49150 0.77184 0.35423
 C1902 C 0.47427 0.77177 0.33732
 C1903 C 0.45660 0.75816 0.34666
 C1904 C 0.44987 0.76474 0.36587
 C1905 C 0.45867 0.80086 0.35652
 C1906 C 0.46541 0.79424 0.33740
 H1907 H 0.49503 0.77920 0.38702
 H1908 H 0.50754 0.76689 0.35139
 H1909 H 0.45019 0.74426 0.33911
 H1910 H 0.43789 0.75620 0.37435
 H1911 H 0.45184 0.81629 0.35899
 H1912 H 0.46437 0.80406 0.32350
 C1913 C -0.03931 0.78159 0.87376
 C1914 C -0.01576 0.77635 0.87261
 C1915 C -0.00925 0.77016 0.85320
 C1916 C -0.02683 0.76972 0.83667
 C1917 C -0.04380 0.75538 0.84621
 C1918 C -0.05031 0.76148 0.86565
 C1919 C -0.04299 0.79804 0.85649
 C1920 C -0.03642 0.79185 0.83717
 H1921 H -0.00522 0.77714 0.88599
 H1922 H 0.00686 0.76571 0.84998
 H1923 H -0.04969 0.74122 0.83874
 H1924 H -0.06148 0.75212 0.87438
 H1925 H -0.05031 0.81320 0.85924
 H1926 H -0.03810 0.80177 0.82340
 C1927 C 0.37729 0.78938 0.28365
 C1928 C 0.39447 0.79224 0.30032
 C1929 C 0.41372 0.78560 0.29404
 C1930 C 0.41418 0.77672 0.27160
 C1931 C 0.39743 0.75934 0.27135
 C1932 C 0.37810 0.76597 0.27765
 C1933 C 0.38560 0.80098 0.26409
 C1934 C 0.40492 0.79436 0.25786
 H1935 H 0.39172 0.79907 0.31570
 H1936 H 0.42745 0.78673 0.30409
 H1937 H 0.40045 0.74327 0.26643
 H1938 H 0.36459 0.75559 0.27810
 H1939 H 0.37709 0.81280 0.25533
 H1940 H 0.41256 0.80076 0.24405
 C1941 C -0.12368 0.78936 0.78284
 C1942 C -0.10648 0.79174 0.79957
 C1943 C -0.08732 0.78488 0.79322
 C1944 C -0.08697 0.77627 0.77067
 C1945 C -0.10399 0.75916 0.77018
 C1946 C -0.12322 0.76601 0.77654
 C1947 C -0.11517 0.80107 0.76345
 C1948 C -0.09595 0.79423 0.75714
 H1949 H -0.10914 0.79842 0.81503
 H1950 H -0.07359 0.78565 0.80330
 H1951 H -0.10120 0.74311 0.76507
 H1952 H -0.13689 0.75585 0.77683
 H1953 H -0.12348 0.81314 0.75483
 H1954 H -0.08818 0.80070 0.74344
 C1955 C 0.87309 0.29035 0.46595
 C1956 C 0.85553 0.29248 0.44957
 C1957 C 0.83656 0.28554 0.45634
 C1958 C 0.83671 0.27710 0.47894
 C1959 C 0.85384 0.26011 0.47916
 C1960 C 0.87289 0.26704 0.47236
 C1961 C 0.86490 0.30216 0.48545
 C1962 C 0.84585 0.29523 0.49219
 H1963 H 0.85783 0.29906 0.43403
 H1964 H 0.82262 0.28615 0.44654
 H1965 H 0.85126 0.24409 0.48441
 H1966 H 0.88661 0.25697 0.47180
 H1967 H 0.87326 0.31443 0.49378
 H1968 H 0.83829 0.30179 0.50598
 C1969 C 0.87239 0.78783 -0.03321
 C1970 C 0.85539 0.79088 -0.05001
 C1971 C 0.83600 0.78448 -0.04389
 C1972 C 0.83527 0.77562 -0.02148
 C1973 C 0.85179 0.75804 -0.02113
 C1974 C 0.87125 0.76444 -0.02727
 C1975 C 0.86409 0.79953 -0.01369
 C1976 C 0.84464 0.79316 -0.00762
 H1977 H 0.85835 0.79765 -0.06536
 H1978 H 0.82236 0.78575 -0.05405
 H1979 H 0.84853 0.74202 -0.01626
 H1980 H 0.88463 0.75391 -0.02764
 H1981 H 0.87271 0.81121 -0.00479
 H1982 H 0.83699 0.79963 0.00617
 C1983 C -0.12050 -0.04284 -0.03553
 C1984 C -0.12078 -0.02004 -0.02744
 C1985 C -0.10180 -0.01303 -0.02052
 C1986 C -0.08419 -0.02940 -0.02227
 C1987 C -0.09245 -0.04870 -0.01023
 C1988 C -0.11141 -0.05578 -0.01711
 C1989 C -0.10318 -0.04335 -0.05234
 C1990 C -0.08427 -0.03626 -0.04541
 H1991 H -0.13477 -0.01033 -0.02701
 H1992 H -0.09956 0.00267 -0.01419
 H1993 H -0.08410 -0.05633 0.00252
 H1994 H -0.11865 -0.06941 -0.01001
 H1995 H -0.10554 -0.04903 -0.06825
 H1996 H -0.07052 -0.03584 -0.05543
 C1997 C -0.12019 0.45958 0.46380
 C1998 C -0.12022 0.48266 0.47109
 C1999 C -0.10115 0.48970 0.47775
 C2000 C -0.08374 0.47306 0.47657
 C2001 C -0.09221 0.45432 0.48930
 C2002 C -0.11126 0.44723 0.48270
 C2003 C -0.10289 0.45829 0.44702
 C2004 C -0.08391 0.46540 0.45369
 H2005 H -0.13410 0.49253 0.47120
 H2006 H -0.09874 0.50558 0.48354
 H2007 H -0.08405 0.44718 0.50245
 H2008 H -0.11879 0.43415 0.49050
 H2009 H -0.10533 0.45209 0.43132
 H2010 H -0.07016 0.46532 0.44365
 C2011 C 0.37980 -0.03976 0.46466
 C2012 C 0.37946 -0.01666 0.47187
 C2013 C 0.39836 -0.00942 0.47880
 C2014 C 0.41596 -0.02589 0.47792
 C2015 C 0.40747 -0.04468 0.49057
 C2016 C 0.38859 -0.05197 0.48371
 C2017 C 0.39734 -0.04093 0.44813
 C2018 C 0.41617 -0.03362 0.45506
 H2019 H 0.36549 -0.00691 0.47174
 H2020 H 0.40055 0.00650 0.48456
 H2021 H 0.41554 -0.05174 0.50382
 H2022 H 0.38112 -0.06516 0.49138
 H2023 H 0.39519 -0.04720 0.43241
 H2024 H 0.43006 -0.03362 0.44522
 C2025 C 0.37814 0.45842 -0.03454
 C2026 C 0.39543 0.45785 -0.05138
 C2027 C 0.41432 0.46505 -0.04454
 C2028 C 0.41443 0.47206 -0.02144
 C2029 C 0.39678 0.48840 -0.01977
 C2030 C 0.37780 0.48128 -0.02662
 C2031 C 0.38729 0.44565 -0.01603
 C2032 C 0.40624 0.45283 -0.00925
 H2033 H 0.39305 0.45206 -0.06725
 H2034 H 0.42805 0.46546 -0.05459
 H2035 H 0.39898 0.50415 -0.01356
 H2036 H 0.36378 0.49095 -0.02623
 H2037 H 0.38007 0.43212 -0.00874
 H2038 H 0.41459 0.44535 0.00358
 C2039 C 0.36953 0.45888 0.78590
 C2040 C 0.36989 0.48185 0.77841
 C2041 C 0.35097 0.48898 0.77149
 C2042 C 0.33337 0.47252 0.77269
 C2043 C 0.34179 0.45351 0.76024
 C2044 C 0.36071 0.44636 0.76710
 C2045 C 0.35215 0.45800 0.80256
 C2046 C 0.33328 0.46516 0.79567
 H2047 H 0.38389 0.49156 0.77838
 H2048 H 0.34876 0.50482 0.76556
 H2049 H 0.33370 0.44629 0.74707
 H2050 H 0.36835 0.43317 0.75958
 H2051 H 0.35447 0.45204 0.81835
 H2052 H 0.31947 0.46536 0.80560
 C2053 C 0.37111 -0.04075 0.28478
 C2054 C 0.37103 -0.01778 0.27730
 C2055 C 0.35192 -0.01096 0.27058
 C2056 C 0.33460 -0.02770 0.27196
 C2057 C 0.34318 -0.04657 0.25942
 C2058 C 0.36229 -0.05341 0.26608
 C2059 C 0.35392 -0.04192 0.30162
 C2060 C 0.33486 -0.03505 0.29493
 H2061 H 0.38487 -0.00785 0.27712
 H2062 H 0.34941 0.00484 0.26467
 H2063 H 0.33503 -0.05395 0.24637
 H2064 H 0.37002 -0.06654 0.25853
 H2065 H 0.35649 -0.04786 0.31739
 H2066 H 0.32114 -0.03509 0.30501
 C2067 C 0.12644 0.53918 0.71780
 C2068 C 0.12714 0.51587 0.72415
 C2069 C 0.14640 0.50928 0.73068
 C2070 C 0.16323 0.52659 0.73028
 C2071 C 0.16289 0.53508 0.70771
 C2072 C 0.14370 0.54168 0.70121
 C2073 C 0.13472 0.55108 0.73724
 C2074 C 0.15400 0.54450 0.74371
 H2075 H 0.11359 0.50554 0.72375
 H2076 H 0.14934 0.49329 0.73586
 H2077 H 0.17667 0.53600 0.69774
 H2078 H 0.14104 0.54826 0.68572
 H2079 H 0.12624 0.56312 0.74574
 H2080 H 0.16164 0.55112 0.75745
 C2081 C 0.12722 0.03803 0.21727
 C2082 C 0.12793 0.01487 0.22412
 C2083 C 0.14722 0.00840 0.23070
 C2084 C 0.16408 0.02565 0.22984
 C2085 C 0.16362 0.03366 0.20708
 C2086 C 0.14440 0.04015 0.20053
 C2087 C 0.13565 0.05036 0.23640
 C2088 C 0.15495 0.04388 0.24291
 H2089 H 0.11437 0.00456 0.22401
 H2090 H 0.15015 -0.00748 0.23621
 H2091 H 0.17735 0.03435 0.19703
 H2092 H 0.14167 0.04640 0.18492
 H2093 H 0.12733 0.06272 0.24458
 H2094 H 0.16273 0.05086 0.25639
 C2095 C 0.62046 0.70928 0.21541
 C2096 C 0.61195 0.69665 0.23424
 C2097 C 0.59302 0.70362 0.24130
 C2098 C 0.58431 0.72255 0.22900
 C2099 C 0.60178 0.73917 0.23009
 C2100 C 0.62069 0.73223 0.22297
 C2101 C 0.60290 0.70823 0.19891
 C2102 C 0.58404 0.71521 0.20600
 H2103 H 0.61974 0.68344 0.24156
 H2104 H 0.58508 0.69628 0.25445
 H2105 H 0.59950 0.75498 0.23611
 H2106 H 0.63459 0.74208 0.22291
 H2107 H 0.60508 0.70231 0.18307
 H2108 H 0.57011 0.71528 0.19619
 C2109 C 0.11982 0.70885 0.71599
 C2110 C 0.11096 0.69600 0.73451
 C2111 C 0.09184 0.70279 0.74120
 C2112 C 0.08330 0.72178 0.72887
 C2113 C 0.10063 0.73849 0.73051
 C2114 C 0.11974 0.73173 0.72377
 C2115 C 0.10264 0.70784 0.69908
 C2116 C 0.08358 0.71465 0.70580
 H2117 H 0.11866 0.68277 0.74190
 H2118 H 0.08365 0.69527 0.75410
 H2119 H 0.09813 0.75423 0.73662
 H2120 H 0.13358 0.74166 0.72412
 H2121 H 0.10521 0.70206 0.68325
 H2122 H 0.06986 0.71471 0.69569
 C2123 C 0.62938 0.21114 0.53340
 C2124 C 0.62983 0.23398 0.52557
 C2125 C 0.64911 0.24049 0.51906
 C2126 C 0.66622 0.22359 0.52097
 C2127 C 0.66555 0.21659 0.54405
 C2128 C 0.64632 0.21005 0.55054
 C2129 C 0.63832 0.19810 0.51503
 C2130 C 0.65760 0.20464 0.50858
 H2131 H 0.61612 0.24406 0.52502
 H2132 H 0.65188 0.25617 0.51294
 H2133 H 0.67914 0.21655 0.55435
 H2134 H 0.64345 0.20440 0.56635
 H2135 H 0.63053 0.18496 0.50753
 H2136 H 0.66585 0.19698 0.49578
 C2137 C 0.62856 0.70933 0.03444
 C2138 C 0.62842 0.73231 0.02701
 C2139 C 0.64736 0.73922 0.01993
 C2140 C 0.66476 0.72254 0.02092
 C2141 C 0.66501 0.71513 0.04388
 C2142 C 0.64613 0.70819 0.05093
 C2143 C 0.63701 0.69675 0.01553
 C2144 C 0.65596 0.70368 0.00850
 H2145 H 0.61456 0.74220 0.02714
 H2146 H 0.64969 0.75505 0.01401
 H2147 H 0.67894 0.71513 0.05369
 H2148 H 0.64392 0.70222 0.06674
 H2149 H 0.62915 0.68361 0.00810
 H2150 H 0.66386 0.69637 -0.00471
 C2151 C 0.12298 0.03806 0.03188
 C2152 C 0.11449 0.05009 0.01265
 C2153 C 0.09514 0.04353 0.00633
 C2154 C 0.08606 0.02552 0.01969
 C2155 C 0.10288 0.00823 0.01895
 C2156 C 0.12221 0.01479 0.02532
 C2157 C 0.10590 0.04044 0.04869
 C2158 C 0.08664 0.03387 0.04233
 H2159 H 0.12288 0.06221 0.00419
 H2160 H 0.08733 0.05025 -0.00724
 H2161 H 0.09989 -0.00772 0.01363
 H2162 H 0.13577 0.00448 0.02545
 H2163 H 0.10873 0.04693 0.06421
 H2164 H 0.07297 0.03472 0.05246
 C2165 C 0.12300 0.54048 0.53177
 C2166 C 0.12260 0.51728 0.52497
 C2167 C 0.10343 0.51054 0.51827
 C2168 C 0.08640 0.52761 0.51896
 C2169 C 0.08658 0.53574 0.54169
 C2170 C 0.10567 0.54249 0.54836
 C2171 C 0.11462 0.55261 0.51254
 C2172 C 0.09543 0.54587 0.50590
 H2173 H 0.13627 0.50712 0.52521
 H2174 H 0.10070 0.49460 0.51279
 H2175 H 0.07277 0.53633 0.55164
 H2176 H 0.10821 0.54887 0.56398
 H2177 H 0.12294 0.56495 0.50435
 H2178 H 0.08771 0.55264 0.49230
 C2179 C 0.62293 0.04164 0.53250
 C2180 C 0.62234 0.01843 0.52573
 C2181 C 0.60305 0.01177 0.51930
 C2182 C 0.58610 0.02891 0.52021
 C2183 C 0.58663 0.03706 0.54292
 C2184 C 0.60584 0.04373 0.54933
 C2185 C 0.61435 0.05378 0.51338
 C2186 C 0.59505 0.04712 0.50701
 H2187 H 0.63597 0.00822 0.52578
 H2188 H 0.60019 -0.00416 0.51386
 H2189 H 0.57295 0.03772 0.55305
 H2190 H 0.60862 0.05011 0.56491
 H2191 H 0.62262 0.06607 0.50506
 H2192 H 0.58718 0.05392 0.49351
 C2193 C 0.62177 0.53950 0.03184
 C2194 C 0.62090 0.51621 0.02540
 C2195 C 0.60150 0.50966 0.01921
 C2196 C 0.58473 0.52699 0.02001
 C2197 C 0.58551 0.53545 0.04261
 C2198 C 0.60484 0.54200 0.04877
 C2199 C 0.61316 0.55146 0.01261
 C2200 C 0.59375 0.54492 0.00649
 H2201 H 0.63443 0.50586 0.02549
 H2202 H 0.59843 0.49369 0.01401
 H2203 H 0.57192 0.53638 0.05284
 H2204 H 0.60781 0.54856 0.06424
 H2205 H 0.62150 0.56351 0.00401
 H2206 H 0.58585 0.55159 -0.00706
 C2207 C 0.03936 0.03064 0.12327
 C2208 C 0.01594 0.02482 0.12231
 C2209 C 0.00936 0.01847 0.10294
 C2210 C 0.02676 0.01845 0.08627
 C2211 C 0.03584 0.04082 0.08670
 C2212 C 0.04246 0.04718 0.10597
 C2213 C 0.05076 0.01082 0.11506
 C2214 C 0.04417 0.00455 0.09567
 H2215 H 0.00551 0.02535 0.13576
 H2216 H -0.00668 0.01363 0.09985
 H2217 H 0.03716 0.05077 0.07291
 H2218 H 0.04946 0.06251 0.10865
 H2219 H 0.06232 0.00180 0.12366
 H2220 H 0.05037 -0.00942 0.08810
 C2221 C 0.03941 0.53256 0.62197
 C2222 C 0.04209 0.54921 0.60475
 C2223 C 0.03563 0.54273 0.58546
 C2224 C 0.02710 0.52014 0.58499
 C2225 C 0.04487 0.50667 0.59435
 C2226 C 0.05132 0.51311 0.61373
 C2227 C 0.01616 0.52622 0.62104
 C2228 C 0.00971 0.51972 0.60168
 H2229 H 0.04869 0.56470 0.60749
 H2230 H 0.03670 0.55273 0.57169
 H2231 H 0.05157 0.49300 0.58667
 H2232 H 0.06338 0.50468 0.62223
 H2233 H 0.00575 0.52661 0.63451
 H2234 H -0.00623 0.51456 0.59859
 C2235 C 0.53945 0.03390 0.62371
 C2236 C 0.54263 0.05045 0.60644
 C2237 C 0.53600 0.04414 0.58715
 C2238 C 0.52683 0.02181 0.58668
 C2239 C 0.54418 0.00783 0.59609
 C2240 C 0.55077 0.01404 0.61548
 C2241 C 0.51600 0.02817 0.62272
 C2242 C 0.50942 0.02187 0.60334
 H2243 H 0.54966 0.06576 0.60915
 H2244 H 0.53734 0.05411 0.57338
 H2245 H 0.55029 -0.00619 0.58854
 H2246 H 0.56223 0.00491 0.62409
 H2247 H 0.50557 0.02873 0.63617
 H2248 H 0.49336 0.01710 0.60023
 C2249 C 0.53845 0.53288 0.12346
 C2250 C 0.55001 0.51321 0.11525
 C2251 C 0.54327 0.50672 0.09599
 C2252 C 0.52557 0.52034 0.08672
 C2253 C 0.50836 0.52026 0.10361
 C2254 C 0.51511 0.52682 0.12284
 C2255 C 0.54113 0.54936 0.10609
 C2256 C 0.53438 0.54283 0.08692
 H2257 H 0.56201 0.50465 0.12370
 H2258 H 0.54969 0.49288 0.08836
 H2259 H 0.49233 0.51528 0.10073
 H2260 H 0.50486 0.52744 0.13643
 H2261 H 0.54794 0.56480 0.10865
 H2262 H 0.53540 0.55272 0.07307
 C2263 C 0.21005 0.53304 0.62750
 C2264 C 0.20756 0.54948 0.64498
 C2265 C 0.21411 0.54275 0.66413
 C2266 C 0.22253 0.52012 0.66421
 C2267 C 0.20464 0.50684 0.65477
 C2268 C 0.19809 0.51354 0.63552
 C2269 C 0.23328 0.52660 0.62819
 C2270 C 0.23981 0.51983 0.64740
 H2271 H 0.20100 0.56503 0.64252
 H2272 H 0.21317 0.55259 0.67805
 H2273 H 0.19789 0.49312 0.66232
 H2274 H 0.18590 0.50529 0.62700
 H2275 H 0.24360 0.52711 0.61466
 H2276 H 0.25574 0.51456 0.65031
 C2277 C 0.21070 0.03080 0.12689
 C2278 C 0.23393 0.02439 0.12765
 C2279 C 0.24047 0.01786 0.14694
 C2280 C 0.22319 0.01833 0.16374
 C2281 C 0.21475 0.04095 0.16341
 C2282 C 0.20820 0.04745 0.14418
 C2283 C 0.19876 0.01139 0.13514
 C2284 C 0.20531 0.00492 0.15446
 H2285 H 0.24425 0.02474 0.11411
 H2286 H 0.25640 0.01262 0.14991
 H2287 H 0.21380 0.05095 0.17721
 H2288 H 0.20162 0.06296 0.14154
 H2289 H 0.18659 0.00303 0.12670
 H2290 H 0.19858 -0.00872 0.16217
 C2291 C 0.71008 0.21704 0.62105
 C2292 C 0.73297 0.22461 0.62089
 C2293 C 0.73973 0.23118 0.60172
 C2294 C 0.72301 0.22959 0.58440
 C2295 C 0.71570 0.20657 0.58482
 C2296 C 0.70891 0.20001 0.60395
 C2297 C 0.69741 0.23565 0.61211
 C2298 C 0.70419 0.24217 0.59292
 H2299 H 0.74291 0.22496 0.63474
 H2300 H 0.75548 0.23713 0.59915
 H2301 H 0.71567 0.19635 0.57115
 H2302 H 0.70304 0.18423 0.60665
 H2303 H 0.68438 0.24329 0.61986
 H2304 H 0.69683 0.25515 0.58469
 C2305 C 0.70760 0.71628 0.11938
 C2306 C 0.69459 0.73459 0.11031
 C2307 C 0.70146 0.74133 0.09123
 C2308 C 0.72070 0.72925 0.08293
 C2309 C 0.73715 0.73120 0.10047
 C2310 C 0.73030 0.72442 0.11954
 C2311 C 0.70707 0.69928 0.10223
 C2312 C 0.71396 0.70604 0.08321
 H2313 H 0.68125 0.74187 0.11789
 H2314 H 0.69385 0.75412 0.08293
 H2315 H 0.75278 0.73754 0.09811
 H2316 H 0.74004 0.72497 0.13352
 H2317 H 0.70157 0.68334 0.10481
 H2318 H 0.71437 0.69585 0.06952
 C2319 C 0.54149 0.71646 0.13048
 C2320 C 0.55458 0.73472 0.13961
 C2321 C 0.54773 0.74148 0.15870
 C2322 C 0.52844 0.72947 0.16696
 C2323 C 0.51200 0.73149 0.14943
 C2324 C 0.51882 0.72469 0.13034
 C2325 C 0.54192 0.69945 0.14758
 C2326 C 0.53506 0.70624 0.16662
 H2327 H 0.56796 0.74194 0.13206
 H2328 H 0.55540 0.75424 0.16705
 H2329 H 0.49639 0.73789 0.15180
 H2330 H 0.50908 0.72527 0.11636
 H2331 H 0.54736 0.68349 0.14496
 H2332 H 0.53460 0.69605 0.18028
 C2333 C 0.04121 0.71600 0.62978
 C2334 C 0.01861 0.72438 0.62939
 C2335 C 0.01157 0.73109 0.64844
 C2336 C 0.02776 0.72884 0.66618
 C2337 C 0.03425 0.70557 0.66576
 C2338 C 0.04131 0.69887 0.64676
 C2339 C 0.05430 0.73411 0.63923
 C2340 C 0.04724 0.74077 0.65827
 H2341 H 0.00907 0.72514 0.61528
 H2342 H -0.00402 0.73757 0.65065
 H2343 H 0.03354 0.69528 0.67934
 H2344 H 0.04666 0.68289 0.64409
 H2345 H 0.06784 0.74131 0.63195
 H2346 H 0.05491 0.75340 0.66682
 C2347 C 0.53364 0.62919 0.21061
 C2348 C 0.55067 0.64624 0.20951
 C2349 C 0.54420 0.66543 0.21637
 C2350 C 0.52124 0.66594 0.22365
 C2351 C 0.50866 0.65746 0.20477
 C2352 C 0.51510 0.63823 0.19793
 C2353 C 0.52609 0.62937 0.23352
 C2354 C 0.51960 0.64860 0.24034
 H2355 H 0.56641 0.64348 0.20365
 H2356 H 0.55444 0.67907 0.21639
 H2357 H 0.49573 0.66575 0.19739
 H2358 H 0.50745 0.63053 0.18483
 H2359 H 0.52572 0.61550 0.24343
 H2360 H 0.51368 0.65119 0.25611
 C2361 C 0.03274 0.62843 0.70943
 C2362 C 0.02476 0.62851 0.73219
 C2363 C 0.01815 0.64771 0.73897
 C2364 C 0.02009 0.66513 0.72240
 C2365 C 0.04318 0.66464 0.71554
 C2366 C 0.04979 0.64549 0.70873
 C2367 C 0.01443 0.63753 0.69644
 C2368 C 0.00786 0.65674 0.70324
 H2369 H 0.02420 0.61460 0.74203
 H2370 H 0.01193 0.65023 0.75463
 H2371 H 0.05342 0.67829 0.71580
 H2372 H 0.06563 0.64277 0.70313
 H2373 H 0.00704 0.62987 0.68317
 H2374 H -0.00491 0.66507 0.69566
 C2375 C 0.03245 0.12173 0.03959
 C2376 C 0.04899 0.10437 0.04213
 C2377 C 0.04243 0.08514 0.03555
 C2378 C 0.01986 0.08485 0.02706
 C2379 C 0.00653 0.09419 0.04495
 C2380 C 0.01306 0.11352 0.05151
 C2381 C 0.02606 0.12098 0.01632
 C2382 C 0.01946 0.10168 0.00976
 H2383 H 0.06448 0.10699 0.04872
 H2384 H 0.05235 0.07129 0.03650
 H2385 H -0.00711 0.08651 0.05166
 H2386 H 0.00475 0.12197 0.06369
 H2387 H 0.02648 0.13453 0.00599
 H2388 H 0.01423 0.09871 -0.00620
 C2389 C 0.03350 0.62281 0.53942
 C2390 C 0.02749 0.62254 0.51603
 C2391 C 0.02082 0.60341 0.50901
 C2392 C 0.02074 0.58629 0.52602
 C2393 C 0.04316 0.58619 0.53490
 C2394 C 0.04981 0.60524 0.54192
 C2395 C 0.01380 0.61460 0.55084
 C2396 C 0.00719 0.59547 0.54383
 H2397 H 0.02822 0.63626 0.50595
 H2398 H 0.01585 0.60076 0.49291
 H2399 H 0.05294 0.57224 0.53573
 H2400 H 0.06522 0.60759 0.54879
 H2401 H 0.00526 0.62303 0.56288
 H2402 H -0.00670 0.58789 0.55010
 C2403 C 0.53253 0.12510 0.53880
 C2404 C 0.54893 0.10772 0.54197
 C2405 C 0.54242 0.08842 0.53554
 C2406 C 0.52006 0.08810 0.52654
 C2407 C 0.50635 0.09776 0.54396
 C2408 C 0.51282 0.11716 0.55038
 C2409 C 0.52667 0.12404 0.51540
 C2410 C 0.52013 0.10467 0.50899
 H2411 H 0.56428 0.11038 0.54886
 H2412 H 0.55226 0.07455 0.53691
 H2413 H 0.49248 0.09029 0.55041
 H2414 H 0.50419 0.12591 0.56212
 H2415 H 0.52737 0.13743 0.50489
 H2416 H 0.51526 0.10148 0.49295
 C2417 C 0.53206 0.62269 0.04104
 C2418 C 0.54842 0.60511 0.04309
 C2419 C 0.54157 0.58607 0.03627
 C2420 C 0.51890 0.58618 0.02803
 C2421 C 0.50587 0.59536 0.04622
 C2422 C 0.51270 0.61450 0.05303
 C2423 C 0.52539 0.62241 0.01783
 C2424 C 0.51850 0.60329 0.01102
 H2425 H 0.56402 0.60745 0.04954
 H2426 H 0.55135 0.57211 0.03686
 H2427 H 0.49217 0.58777 0.05290
 H2428 H 0.50454 0.62291 0.06535
 H2429 H 0.52584 0.63614 0.00773
 H2430 H 0.51306 0.60065 -0.00492
 C2431 C 0.71674 0.12974 0.54145
 C2432 C 0.69987 0.14700 0.54229
 C2433 C 0.70661 0.16608 0.53543
 C2434 C 0.72966 0.16636 0.52843
 C2435 C 0.74192 0.15793 0.54750
 C2436 C 0.73524 0.13878 0.55435
 C2437 C 0.72463 0.12976 0.51862
 C2438 C 0.73136 0.14890 0.51184
 H2439 H 0.68404 0.14448 0.54803
 H2440 H 0.69651 0.17982 0.53526
 H2441 H 0.75478 0.16621 0.55504
 H2442 H 0.74269 0.13127 0.56764
 H2443 H 0.72509 0.11584 0.50875
 H2444 H 0.73754 0.15134 0.49615
 C2445 C 0.71545 0.62881 0.03894
 C2446 C 0.69838 0.64581 0.04015
 C2447 C 0.70479 0.66502 0.03336
 C2448 C 0.72774 0.66562 0.02603
 C2449 C 0.74037 0.65714 0.04485
 C2450 C 0.73400 0.63788 0.05162
 C2451 C 0.72295 0.62905 0.01602
 C2452 C 0.72937 0.64831 0.00926
 H2453 H 0.68266 0.64299 0.04603
 H2454 H 0.69452 0.67863 0.03340
 H2455 H 0.75331 0.66544 0.05223
 H2456 H 0.74171 0.63017 0.06465
 H2457 H 0.72333 0.61520 0.00605
 H2458 H 0.73525 0.65095 -0.00651
 C2459 C 0.21643 0.62258 0.71066
 C2460 C 0.20014 0.60503 0.70776
 C2461 C 0.20673 0.58590 0.71454
 C2462 C 0.22908 0.58590 0.72358
 C2463 C 0.24277 0.59533 0.70602
 C2464 C 0.23620 0.61456 0.69926
 C2465 C 0.22226 0.62201 0.73410
 C2466 C 0.22888 0.60280 0.74085
 H2467 H 0.18478 0.60745 0.70080
 H2468 H 0.19696 0.57195 0.71340
 H2469 H 0.25672 0.58785 0.69975
 H2470 H 0.24481 0.62316 0.68741
 H2471 H 0.22146 0.63560 0.74439
 H2472 H 0.23372 0.59995 0.75695
 C2473 C 0.21794 0.12178 0.20983
 C2474 C 0.23729 0.11332 0.19802
 C2475 C 0.24366 0.09402 0.20474
 C2476 C 0.23021 0.08496 0.22268
 C2477 C 0.23072 0.10196 0.23984
 C2478 C 0.22431 0.12124 0.23312
 C2479 C 0.20126 0.10452 0.20742
 C2480 C 0.20766 0.08531 0.21415
 H2481 H 0.24579 0.12170 0.18593
 H2482 H 0.25731 0.08624 0.19818
 H2483 H 0.23589 0.09913 0.25584
 H2484 H 0.22401 0.13491 0.24333
 H2485 H 0.18580 0.10720 0.20080
 H2486 H 0.19763 0.07153 0.21331
 C2487 C 0.71831 1.12322 0.71019
 C2488 C 0.70158 1.10599 0.70801
 C2489 C 0.70805 1.08677 0.71464
 C2490 C 0.73072 1.08637 0.72284
 C2491 C 0.74392 1.09542 0.70472
 C2492 C 0.73749 1.11473 0.69810
 C2493 C 0.72501 1.12266 0.73338
 C2494 C 0.73150 1.10336 0.74001
 H2495 H 0.68603 1.10868 0.70160
 H2496 H 0.69798 1.07300 0.71394
 H2497 H 0.75746 1.08761 0.69795
 H2498 H 0.74581 1.12306 0.68586
 H2499 H 0.72488 1.13633 0.74361
 H2500 H 0.73690 1.10051 0.75592
 C2501 C 0.71690 0.62270 0.20878
 C2502 C 0.72325 0.62238 0.23207
 C2503 C 0.73009 0.60327 0.23886
 C2504 C 0.72997 0.58620 0.22176
 C2505 C 0.70742 0.58604 0.21321
 C2506 C 0.70061 0.60507 0.20641
 C2507 C 0.73644 0.61462 0.19701
 C2508 C 0.74322 0.59548 0.20380
 H2509 H 0.72264 0.63607 0.24224
 H2510 H 0.73533 0.60060 0.25487
 H2511 H 0.69769 0.57204 0.21240
 H2512 H 0.68509 0.60738 0.19977
 H2513 H 0.74475 0.62311 0.18487
 H2514 H 0.75704 0.58796 0.19728
 C2515 C 0.53281 0.12737 0.71079
 C2516 C 0.52727 0.12840 0.73429
 C2517 C 0.52098 0.14779 0.74086
 C2518 C 0.52074 0.16443 0.72338
 C2519 C 0.54295 0.16404 0.71408
 C2520 C 0.54925 0.14474 0.70747
 C2521 C 0.51290 0.13549 0.69954
 C2522 C 0.50669 0.15491 0.70612
 H2523 H 0.52795 0.11497 0.74476
 H2524 H 0.51633 0.15093 0.75695
 H2525 H 0.55284 0.17787 0.71264
 H2526 H 0.56448 0.14207 0.70034
 H2527 H 0.50374 0.12679 0.68814
 H2528 H 0.49264 0.16239 0.70006
 C2529 C 1.03223 0.12587 0.20978
 C2530 C 1.02557 0.12671 0.23296
 C2531 C 1.01916 0.14610 0.23943
 C2532 C 1.01998 0.16292 0.22214
 C2533 C 1.04264 0.16235 0.21397
 C2534 C 1.04902 0.14303 0.20748
 C2535 C 1.01308 0.13433 0.19759
 C2536 C 1.00673 0.15374 0.20407
 H2537 H 1.02568 0.11316 0.24329
 H2538 H 1.01379 0.14913 0.25531
 H2539 H 1.05275 0.17607 0.21315
 H2540 H 1.06454 0.14021 0.20110
 H2541 H 1.00478 0.12595 0.18533
 H2542 H 0.99327 0.16157 0.19717
 C2543 C 0.21660 0.63000 0.54147
 C2544 C 0.23494 0.63896 0.55456
 C2545 C 0.24159 0.65820 0.54794
 C2546 C 0.22941 0.66675 0.52886
 C2547 C 0.23130 0.64943 0.51212
 C2548 C 0.22459 0.63021 0.51872
 C2549 C 0.19962 0.64711 0.54232
 C2550 C 0.20631 0.66628 0.53570
 H2551 H 0.24228 0.63120 0.56777
 H2552 H 0.25438 0.66646 0.55561
 H2553 H 0.23755 0.65202 0.49649
 H2554 H 0.22512 0.61636 0.50876
 H2555 H 0.18376 0.64439 0.54787
 H2556 H 0.19613 0.67997 0.53558
 C2557 C 0.21673 0.12737 1.04056
 C2558 C 0.22466 0.12765 1.01778
 C2559 C 0.23125 0.14692 1.01121
 C2560 C 0.22933 0.16419 1.02798
 C2561 C 0.20625 0.16362 1.03488
 C2562 C 0.19967 0.14439 1.04149
 C2563 C 0.23506 0.13639 1.05361
 C2564 C 0.24160 0.15567 1.04701
 H2565 H 0.22521 0.11383 1.00779
 H2566 H 0.23744 0.14957 0.99556
 H2567 H 0.19601 0.17725 1.03480
 H2568 H 0.18385 0.14159 1.04708
 H2569 H 0.24245 0.12867 1.06681
 H2570 H 0.25437 0.16397 1.05468
 C2571 C 0.20874 0.71713 0.62192
 C2572 C 0.20780 0.70037 0.60456
 C2573 C 0.21478 0.70723 0.58561
 C2574 C 0.22203 0.73028 0.58560
 C2575 C 0.20311 0.74270 0.59412
 C2576 C 0.19615 0.73588 0.61314
 C2577 C 0.23162 0.72476 0.62213
 C2578 C 0.23857 0.73164 0.60312
 H2579 H 0.20197 0.68452 0.60696
 H2580 H 0.21495 0.69721 0.57179
 H2581 H 0.19591 0.75591 0.58610
 H2582 H 0.18317 0.74354 0.62098
 H2583 H 0.24142 0.72489 0.63608
 H2584 H 0.25434 0.73765 0.60081
 C2585 C 0.20926 0.21492 1.12125
 C2586 C 0.23224 0.22230 1.12098
 C2587 C 0.23899 0.22879 1.10178
 C2588 C 0.22220 0.22738 1.08452
 C2589 C 0.21465 0.20444 1.08494
 C2590 C 0.20784 0.19794 1.10408
 C2591 C 0.19676 0.23373 1.11231
 C2592 C 0.20356 0.24016 1.09311
 H2593 H 0.24226 0.22261 1.13478
 H2594 H 0.25478 0.23461 1.09916
 H2595 H 0.21445 0.19425 1.07125
 H2596 H 0.20178 0.18221 1.10673
 H2597 H 0.18394 0.24172 1.12004
 H2598 H 0.19637 0.25329 1.08495
 C2599 C 0.71045 0.53262 0.12599
 C2600 C 0.73372 0.52632 0.12660
 C2601 C 0.74040 0.51978 0.14584
 C2602 C 0.72322 0.52013 0.16275
 C2603 C 0.71468 0.54272 0.16250
 C2604 C 0.70798 0.54923 0.14333
 C2605 C 0.69866 0.51313 0.13427
 C2606 C 0.70535 0.50666 0.15354
 H2607 H 0.74395 0.52675 0.11300
 H2608 H 0.75638 0.51462 0.14871
 H2609 H 0.71379 0.55269 0.17633
 H2610 H 0.70134 0.56472 0.14074
 H2611 H 0.68652 0.50468 0.12588
 H2612 H 0.69876 0.49295 0.16122
 C2613 C 0.71103 1.03361 0.62708
 C2614 C 0.69926 1.01396 0.63501
 C2615 C 0.70585 1.00723 0.65422
 C2616 C 0.72361 1.02064 0.66374
 C2617 C 0.74090 1.02060 0.64694
 C2618 C 0.73431 1.02740 0.62775
 C2619 C 0.70837 1.04995 0.64464
 C2620 C 0.71497 1.04319 0.66376
 H2621 H 0.68721 1.00558 0.62640
 H2622 H 0.69926 0.99339 0.66168
 H2623 H 0.75687 1.01546 0.64984
 H2624 H 0.74464 1.02807 0.61424
 H2625 H 0.70169 1.06546 0.64223
 H2626 H 0.71394 1.05297 0.67772
 C2627 C 0.54009 0.21971 0.62694
 C2628 C 0.55209 0.23893 0.63559
 C2629 C 0.54558 0.24507 0.65502
 C2630 C 0.52764 0.23156 0.66400
 C2631 C 0.51036 0.23241 0.64717
 C2632 C 0.51688 0.22621 0.62776
 C2633 C 0.54251 0.20274 0.64388
 C2634 C 0.53599 0.20892 0.66322
 H2635 H 0.56413 0.24752 0.62724
 H2636 H 0.55228 0.25862 0.66295
 H2637 H 0.49445 0.23766 0.65022
 H2638 H 0.50656 0.22617 0.61419
 H2639 H 0.54899 0.18725 0.64091
 H2640 H 0.53688 0.19867 0.67682
 C2641 C 1.03949 0.21707 0.12590
 C2642 C 1.01600 0.22263 0.12681
 C2643 C 1.00939 0.22901 0.14613
 C2644 C 1.02683 0.22934 0.16281
 C2645 C 1.03615 0.20707 0.16251
 C2646 C 1.04279 0.20068 0.14329
 C2647 C 1.05067 0.23709 0.13397
 C2648 C 1.04406 0.24339 0.15332
 H2649 H 1.00556 0.22192 0.11335
 H2650 H 0.99331 0.23369 0.14919
 H2651 H 1.03756 0.19721 0.17636
 H2652 H 1.04992 0.18540 0.14069
 H2653 H 1.06195 0.24628 0.12522
 H2654 H 1.05003 0.25756 0.16074
 C2655 C 0.62343 0.21123 0.71740
 C2656 C 0.62286 0.23451 0.72388
 C2657 C 0.60367 0.24115 0.73057
 C2658 C 0.58678 0.22390 0.73017
 C2659 C 0.58690 0.21548 0.70754
 C2660 C 0.60602 0.20882 0.70089
 C2661 C 0.61525 0.19927 0.73680
 C2662 C 0.59605 0.20591 0.74343
 H2663 H 0.63643 0.24480 0.72345
 H2664 H 0.60083 0.25713 0.73586
 H2665 H 0.57304 0.21463 0.69765
 H2666 H 0.60852 0.20227 0.68535
 H2667 H 0.62365 0.18703 0.74508
 H2668 H 0.58843 0.19919 0.75710
 C2669 C 1.12303 0.20965 0.21649
 C2670 C 1.12235 0.23299 0.22276
 C2671 C 1.10312 0.23960 0.22932
 C2672 C 1.08630 0.22229 0.22901
 C2673 C 1.08653 0.21367 0.20646
 C2674 C 1.10569 0.20702 0.19994
 C2675 C 1.11483 0.19783 0.23597
 C2676 C 1.09558 0.20446 0.24246
 H2677 H 1.13590 0.24331 0.22229
 H2678 H 1.10021 0.25562 0.23446
 H2679 H 1.07270 0.21267 0.19653
 H2680 H 1.10826 0.20032 0.18447
 H2681 H 1.12326 0.18570 0.24437
 H2682 H 1.08794 0.19783 0.25616
 C2683 C 0.12993 0.70969 0.53542
 C2684 C 0.12980 0.73262 0.52785
 C2685 C 0.14886 0.73963 0.52121
 C2686 C 0.16635 0.72309 0.52274
 C2687 C 0.16609 0.71583 0.54574
 C2688 C 0.14709 0.70878 0.55236
 C2689 C 0.13894 0.69704 0.51682
 C2690 C 0.15801 0.70407 0.51024
 H2691 H 0.11586 0.74240 0.52756
 H2692 H 0.15123 0.75545 0.51527
 H2693 H 0.17977 0.71603 0.55590
 H2694 H 0.14452 0.70293 0.56815
 H2695 H 0.13139 0.68376 0.50932
 H2696 H 0.16631 0.69667 0.49732
 C2697 C 0.12887 0.20834 1.03375
 C2698 C 0.13787 0.19532 1.01538
 C2699 C 0.15707 0.20202 1.00883
 C2700 C 0.16555 0.22110 1.02113
 C2701 C 0.14827 0.23782 1.01923
 C2702 C 0.12908 0.23115 1.02583
 C2703 C 0.14589 0.20746 1.05082
 C2704 C 0.16503 0.21416 1.04423
 H2705 H 0.13017 0.18209 1.00795
 H2706 H 0.16534 0.19441 0.99602
 H2707 H 0.15087 0.25351 1.01305
 H2708 H 0.11527 0.24110 1.02529
 H2709 H 0.14313 0.20184 1.06666
 H2710 H 0.17865 0.21429 1.05448
 C2711 C 0.62737 0.53987 0.21752
 C2712 C 0.63606 0.55196 0.23667
 C2713 C 0.65541 0.54534 0.24286
 C2714 C 0.66432 0.52723 0.22948
 C2715 C 0.64741 0.51002 0.23038
 C2716 C 0.62807 0.51663 0.22412
 C2717 C 0.64434 0.54209 0.20059
 C2718 C 0.66362 0.53546 0.20682
 H2719 H 0.62782 0.56416 0.24516
 H2720 H 0.66335 0.55211 0.25636
 H2721 H 0.65036 0.49407 0.23568
 H2722 H 0.61446 0.50637 0.22408
 H2723 H 0.64144 0.54851 0.18507
 H2724 H 0.67722 0.53619 0.19659
 C2725 C 0.62746 1.04028 0.71750
 C2726 C 0.63601 1.05232 0.73674
 C2727 C 0.65528 1.04562 0.74312
 C2728 C 0.66426 1.02750 0.72980
 C2729 C 0.64729 1.01035 0.73050
 C2730 C 0.62803 1.01703 0.72406
 C2731 C 0.64461 1.04249 0.70074
 C2732 C 0.66380 1.03580 0.70716
 H2733 H 0.62780 1.06466 0.74507
 H2734 H 0.66316 1.05241 0.75665
 H2735 H 0.65014 0.99438 0.73579
 H2736 H 0.61440 1.00681 0.72385
 H2737 H 0.64188 1.04897 0.68522
 H2738 H 0.67751 1.03653 0.69708
 C2739 C 0.87051 0.45870 0.28434
 C2740 C 0.87110 0.48167 0.27685
 C2741 C 0.85225 0.48896 0.26987
 C2742 C 0.83451 0.47266 0.27101
 C2743 C 0.84280 0.45358 0.25858
 C2744 C 0.86164 0.44627 0.26550
 C2745 C 0.85307 0.45797 0.30093
 C2746 C 0.83429 0.46530 0.29398
 H2747 H 0.88518 0.49125 0.27687
 H2748 H 0.85020 0.50482 0.26393
 H2749 H 0.83470 0.44644 0.24537
 H2750 H 0.86919 0.43302 0.25798
 H2751 H 0.85528 0.45199 0.31674
 H2752 H 0.82044 0.46562 0.30387
 C2753 C 0.87040 0.95838 0.78518
 C2754 C 0.85314 0.95787 0.80199
 C2755 C 0.83423 0.96494 0.79511
 C2756 C 0.83415 0.97182 0.77199
 C2757 C 0.85177 0.98821 0.77032
 C2758 C 0.87074 0.98118 0.77722
 C2759 C 0.86137 0.94549 0.76672
 C2760 C 0.84241 0.95254 0.75986
 H2761 H 0.85557 0.95224 0.81789
 H2762 H 0.82049 0.96536 0.80514
 H2763 H 0.84955 1.00393 0.76409
 H2764 H 0.88476 0.99086 0.77688
 H2765 H 0.86879 0.93197 0.75956
 H2766 H 0.83411 0.94498 0.74702
 C2767 C 0.37993 0.29083 0.78498
 C2768 C 0.39703 0.29156 0.80199
 C2769 C 0.41604 0.28455 0.79535
 C2770 C 0.41637 0.27748 0.77227
 C2771 C 0.39886 0.26098 0.77049
 C2772 C 0.37978 0.26796 0.77713
 C2773 C 0.38903 0.30361 0.76655
 C2774 C 0.40809 0.29661 0.75995
 H2775 H 0.39441 0.29729 0.81783
 H2776 H 0.42969 0.28427 0.80555
 H2777 H 0.40122 0.24522 0.76436
 H2778 H 0.36582 0.25820 0.77668
 H2779 H 0.38145 0.31682 0.75902
 H2780 H 0.41635 0.30401 0.74703
 C2781 C 0.88000 0.29086 0.28392
 C2782 C 0.89710 0.29120 0.30094
 C2783 C 0.91604 0.28406 0.29422
 C2784 C 0.91630 0.27730 0.27105
 C2785 C 0.89861 0.26100 0.26906
 C2786 C 0.87961 0.26810 0.27579
 C2787 C 0.88924 0.30378 0.26566
 C2788 C 0.90822 0.29667 0.25898
 H2789 H 0.89454 0.29676 0.31685
 H2790 H 0.92969 0.28350 0.30442
 H2791 H 0.90081 0.24529 0.26274
 H2792 H 0.86556 0.25848 0.27524
 H2793 H 0.88187 0.31724 0.25837
 H2794 H 0.91661 0.30421 0.24622
 C2795 C 0.37320 0.79108 0.46872
 C2796 C 0.35591 0.79332 0.45207
 C2797 C 0.33679 0.78650 0.45855
 C2798 C 0.33654 0.77807 0.48115
 C2799 C 0.35356 0.76097 0.48165
 C2800 C 0.37275 0.76778 0.47515
 C2801 C 0.36478 0.80295 0.48810
 C2802 C 0.34558 0.79615 0.49454
 H2803 H 0.35850 0.79987 0.43657
 H2804 H 0.32300 0.78722 0.44854
 H2805 H 0.35079 0.74497 0.48687
 H2806 H 0.38641 0.75762 0.47482
 H2807 H 0.37312 0.81513 0.49657
 H2808 H 0.33786 0.80274 0.50823
 C2809 C 0.37214 0.28929 0.96692
 C2810 C 0.35462 0.29163 0.95053
 C2811 C 0.33566 0.28452 0.95713
 C2812 C 0.33577 0.27575 0.97960
 C2813 C 0.35295 0.25880 0.97961
 C2814 C 0.37200 0.26589 0.97297
 C2815 C 0.36387 0.30077 0.98658
 C2816 C 0.34482 0.29369 0.99315
 H2817 H 0.35695 0.29845 0.93509
 H2818 H 0.32175 0.28523 0.94730
 H2819 H 0.35040 0.24269 0.98460
 H2820 H 0.38575 0.25587 0.97229
 H2821 H 0.37218 0.31291 0.99515
 H2822 H 0.33723 0.29998 1.00705
 C2823 C 0.79220 0.46577 0.36937
 C2824 C 0.79238 0.44861 0.35237
 C2825 C 0.78525 0.45524 0.33336
 C2826 C 0.77865 0.47847 0.33296
 C2827 C 0.76246 0.48067 0.35067
 C2828 C 0.76955 0.47403 0.36972
 C2829 C 0.80518 0.48393 0.35998
 C2830 C 0.79808 0.49052 0.34094
 H2831 H 0.79782 0.43266 0.35504
 H2832 H 0.78458 0.44493 0.31978
 H2833 H 0.74683 0.48705 0.34843
 H2834 H 0.76000 0.47473 0.38380
 H2835 H 0.81867 0.49122 0.36731
 H2836 H 0.80565 0.50321 0.33245
 C2837 C 0.79143 0.96525 0.87035
 C2838 C 0.76865 0.97318 0.87073
 C2839 C 0.76154 0.97997 0.85173
 C2840 C 0.77783 0.97825 0.83407
 C2841 C 0.79704 0.99048 0.84230
 C2842 C 0.80417 0.98373 0.86128
 C2843 C 0.79191 0.94833 0.85312
 C2844 C 0.78477 0.95512 0.83419
 H2845 H 0.75905 0.97357 0.88478
 H2846 H 0.74583 0.98617 0.84952
 H2847 H 0.80437 1.00350 0.83409
 H2848 H 0.81742 0.99122 0.86886
 H2849 H 0.79754 0.93242 0.85560
 H2850 H 0.78427 0.94498 0.82046
 C2851 C 0.28927 0.78370 0.37840
 C2852 C 0.30094 0.76419 0.38680
 C2853 C 0.29433 0.75797 0.40615
 C2854 C 0.27665 0.77168 0.41533
 C2855 C 0.28541 0.79418 0.41484
 C2856 C 0.29203 0.80045 0.39557
 C2857 C 0.26594 0.77760 0.37919
 C2858 C 0.25934 0.77131 0.39853
 H2859 H 0.31291 0.75554 0.37840
 H2860 H 0.30085 0.74426 0.41391
 H2861 H 0.28649 0.80428 0.42857
 H2862 H 0.29878 0.81587 0.39280
 H2863 H 0.25561 0.77800 0.36564
 H2864 H 0.24334 0.76634 0.40153
 C2865 C 0.28977 0.28268 0.87782
 C2866 C 0.26645 0.27652 0.87804
 C2867 C 0.25951 0.26977 0.89712
 C2868 C 0.27653 0.26978 0.91423
 C2869 C 0.29439 0.25631 0.90504
 C2870 C 0.30132 0.26300 0.88596
 C2871 C 0.29218 0.29903 0.89540
 C2872 C 0.28523 0.29231 0.91440
 H2873 H 0.25636 0.27720 0.86432
 H2874 H 0.24347 0.26468 0.89973
 H2875 H 0.30074 0.24239 0.91256
 H2876 H 0.31336 0.25449 0.87753
 H2877 H 0.29893 0.31452 0.89310
 H2878 H 0.28602 0.30210 0.92836
 C2879 C 0.45910 0.28543 0.87081
 C2880 C 0.44639 0.26692 0.86165
 C2881 C 0.45351 0.26017 0.84267
 C2882 C 0.47269 0.27244 0.83451
 C2883 C 0.46568 0.29555 0.83466
 C2884 C 0.45853 0.30233 0.85360
 C2885 C 0.48190 0.27759 0.87119
 C2886 C 0.48900 0.27078 0.85220
 H2887 H 0.43292 0.25965 0.86900
 H2888 H 0.44606 0.24730 0.83429
 H2889 H 0.46610 0.30567 0.82096
 H2890 H 0.45279 0.31821 0.85608
 H2891 H 0.49153 0.27728 0.88525
 H2892 H 0.50473 0.26465 0.85000
 C2893 C 0.95983 0.28460 0.36971
 C2894 C 0.95888 0.30127 0.35230
 C2895 C 0.96584 0.29432 0.33336
 C2896 C 0.97306 0.27127 0.33339
 C2897 C 0.98962 0.26998 0.35089
 C2898 C 0.98270 0.27697 0.36990
 C2899 C 0.94717 0.26585 0.36095
 C2900 C 0.95411 0.25892 0.34195
 H2901 H 0.95303 0.31713 0.35466
 H2902 H 0.96598 0.30426 0.31952
 H2903 H 1.00536 0.26393 0.34857
 H2904 H 0.99251 0.27691 0.38383
 H2905 H 0.93396 0.25846 0.36864
 H2906 H 0.94674 0.24583 0.33387
 C2907 C 0.46500 0.37092 0.79214
 C2908 C 0.44848 0.35335 0.79284
 C2909 C 0.45552 0.33452 0.78561
 C2910 C 0.47851 0.33483 0.77839
 C2911 C 0.47966 0.35254 0.76205
 C2912 C 0.47259 0.37143 0.76924
 C2913 C 0.48378 0.36218 0.80468
 C2914 C 0.49079 0.34329 0.79747
 H2915 H 0.43265 0.35552 0.79871
 H2916 H 0.44568 0.32059 0.78528
 H2917 H 0.48568 0.35044 0.74625
 H2918 H 0.47256 0.38550 0.75962
 H2919 H 0.49120 0.36985 0.81792
 H2920 H 0.50397 0.33527 0.80469
 C2921 C 0.96493 0.36969 0.29056
 C2922 C 0.97246 0.37025 0.26764
 C2923 C 0.97936 0.35133 0.26033
 C2924 C 0.97811 0.33355 0.27659
 C2925 C 0.99052 0.34184 0.29567
 C2926 C 0.98368 0.36075 0.30299
 C2927 C 0.94827 0.35225 0.29123
 C2928 C 0.95515 0.33340 0.28388
 H2929 H 0.97253 0.38436 0.25809
 H2930 H 0.98532 0.34926 0.24450
 H2931 H 1.00366 0.33369 0.30281
 H2932 H 0.99122 0.36831 0.31623
 H2933 H 0.93249 0.35451 0.29717
 H2934 H 0.94521 0.31954 0.28352
 C2935 C 0.28433 0.87371 0.46100
 C2936 C 0.26451 0.86558 0.44970
 C2937 C 0.25780 0.84656 0.45683
 C2938 C 0.27137 0.83740 0.47464
 C2939 C 0.29374 0.83706 0.46572
 C2940 C 0.30049 0.85600 0.45856
 C2941 C 0.27846 0.87368 0.48442
 C2942 C 0.27167 0.85465 0.49156
 H2943 H 0.25591 0.87401 0.43772
 H2944 H 0.24374 0.83910 0.45071
 H2945 H 0.30341 0.82303 0.46495
 H2946 H 0.31589 0.85818 0.45165
 H2947 H 0.27935 0.88748 0.49443
 H2948 H 0.26676 0.85218 0.50769
 C2949 C 0.28313 0.37164 0.96085
 C2950 C 0.27726 0.37120 0.98426
 C2951 C 0.27069 0.35200 0.99112
 C2952 C 0.27058 0.33500 0.97395
 C2953 C 0.25690 0.34425 0.95627
 C2954 C 0.26341 0.36345 0.94942
 C2955 C 0.29949 0.35415 0.95814
 C2956 C 0.29295 0.33503 0.96501
 H2957 H 0.27799 0.38486 0.99446
 H2958 H 0.26582 0.34923 1.00721
 H2959 H 0.24297 0.33669 0.95000
 H2960 H 0.25475 0.37195 0.93751
 H2961 H 0.31486 0.35660 0.95125
 H2962 H 0.30278 0.32112 0.96403
 C2963 C 0.78514 0.37941 0.28976
 C2964 C 0.76643 0.38828 0.30229
 C2965 C 0.75967 0.40731 0.29524
 C2966 C 0.77211 0.41578 0.27632
 C2967 C 0.79507 0.41575 0.28368
 C2968 C 0.80187 0.39678 0.29076
 C2969 C 0.77762 0.37917 0.26682
 C2970 C 0.77080 0.39821 0.25979
 H2971 H 0.75894 0.38065 0.31547
 H2972 H 0.74660 0.41546 0.30251
 H2973 H 0.80508 0.42956 0.28355
 H2974 H 0.81764 0.39438 0.29672
 H2975 H 0.77752 0.36518 0.25704
 H2976 H 0.76486 0.40051 0.24397
   
