data_POSCAR
  _audit_creation_date              2014-09-24
  _audit_creation_method            'ToBaCCo'
  _symmetry_space_group_name_H-M    'P1'
  _symmetry_Int_Tables_number       1
  _symmetry_cell_setting            triclinic
  loop_
  _symmetry_equiv_pos_as_xyz
 x,y,z
_cell_length_a 57.5155
_cell_length_b 55.0850
_cell_length_c 54.5629
_cell_angle_alpha 89.936700
_cell_angle_beta 90.046800
_cell_angle_gamma 89.969500
loop_
  _atom_site_label
  _atom_site_type_symbol
  _atom_site_fract_x
  _atom_site_fract_y
  _atom_site_fract_z
C1 C 0.29035 0.38060 -0.00158
 C2 C 0.29627 0.36891 0.02025
 C3 C 0.31330 0.35071 0.02031
 C4 C 0.32543 0.34475 -0.00142
 C5 C 0.31961 0.35741 -0.02314
 C6 C 0.30178 0.37469 -0.02331
 C7 C 0.34397 0.32557 -0.00157
 C8 C 0.34976 0.31328 -0.02348
 C9 C 0.36788 0.29632 -0.02400
 C10 C 0.37959 0.29031 -0.00242
 C11 C 0.37366 0.30161 0.01958
 C12 C 0.35635 0.31951 0.01999
 H13 H 0.27679 0.39433 -0.00161
 H14 H 0.31678 0.34127 0.03731
 H15 H 0.32887 0.35410 -0.04006
 H16 H 0.34037 0.31674 -0.04031
 H17 H 0.39348 0.27696 -0.00275
 H18 H 0.35296 0.32873 0.03710
 C19 C 0.70861 0.61388 -0.00303
 C20 C 0.70272 0.62406 0.01952
 C21 C 0.68627 0.64276 0.02068
 C22 C 0.67446 0.65070 -0.00067
 C23 C 0.68038 0.63968 -0.02326
 C24 C 0.69774 0.62188 -0.02443
 C25 C 0.65609 0.67011 0.00066
 C26 C 0.64990 0.68390 -0.02028
 C27 C 0.63235 0.70154 -0.01902
 C28 C 0.62157 0.70652 0.00332
 C29 C 0.62774 0.69356 0.02429
 C30 C 0.64441 0.67510 0.02292
 H31 H 0.72164 0.59966 -0.00392
 H32 H 0.68295 0.65093 0.03833
 H33 H 0.67156 0.64454 -0.04006
 H34 H 0.65860 0.68126 -0.03763
 H35 H 0.60829 0.72049 0.00442
 H36 H 0.64792 0.66473 0.03934
 C37 C 0.70890 0.37846 0.99865
 C38 C 0.70203 0.36837 0.97636
 C39 C 0.68462 0.35058 0.97578
 C40 C 0.67291 0.34357 0.99751
 C41 C 0.67981 0.35463 1.01977
 C42 C 0.69806 0.37141 1.02035
 C43 C 0.65353 0.32518 0.99699
 C44 C 0.64690 0.31250 1.01849
 C45 C 0.62815 0.29627 1.01825
 C46 C 0.61659 0.29134 0.99631
 C47 C 0.62328 0.30298 0.97472
 C48 C 0.64118 0.32021 0.97511
 H49 H 0.72261 0.39198 0.99908
 H50 H 0.68046 0.34247 0.95831
 H51 H 0.67105 0.35065 1.03682
 H52 H 0.65613 0.31502 1.03556
 H53 H 0.60230 0.27848 0.99600
 H54 H 0.64506 0.32970 0.95826
 C55 C 0.28794 0.62759 1.00202
 C56 C 0.29990 0.63349 0.98060
 C57 C 0.31815 0.65029 0.98131
 C58 C 0.32401 0.66221 1.00342
 C59 C 0.31125 0.65640 1.02475
 C60 C 0.29377 0.63877 1.02410
 C61 C 0.34348 0.68024 1.00433
 C62 C 0.35587 0.68442 1.02632
 C63 C 0.37387 0.70151 1.02717
 C64 C 0.38044 0.71384 1.00590
 C65 C 0.36879 0.70954 0.98389
 C66 C 0.35009 0.69332 0.98317
 H67 H 0.27424 0.61406 1.00156
 H68 H 0.32782 0.65361 0.96465
 H69 H 0.31476 0.66536 1.04199
 H70 H 0.35187 0.67431 1.04280
 H71 H 0.39475 0.72668 1.00639
 H72 H 0.34087 0.69108 0.96604
 C73 C 0.00784 0.28174 0.37465
 C74 C 0.02696 0.29562 0.36756
 C75 C 0.02421 0.31427 0.35032
 C76 C 0.00233 0.31859 0.33919
 C77 C -0.01665 0.30390 0.34630
 C78 C -0.01394 0.28602 0.36430
 C79 C -0.00076 0.33839 0.32058
 C80 C -0.02269 0.34949 0.31681
 C81 C -0.02545 0.36782 0.29919
 C82 C -0.00625 0.37599 0.28590
 C83 C 0.01557 0.36561 0.28970
 C84 C 0.01827 0.34660 0.30647
 H85 H 0.00987 0.26776 0.38852
 H86 H 0.03912 0.32546 0.34607
 H87 H -0.03362 0.30617 0.33805
 H88 H -0.03764 0.34430 0.32763
 H89 H -0.00822 0.39061 0.27270
 H90 H 0.03528 0.33841 0.30831
 C91 C 0.00261 0.71778 0.62662
 C92 C 0.02250 0.70427 0.63202
 C93 C 0.02130 0.68502 0.64879
 C94 C 0.00029 0.67971 0.66120
 C95 C -0.01945 0.69407 0.65586
 C96 C -0.01838 0.71254 0.63828
 C97 C -0.00114 0.65922 0.67931
 C98 C -0.02254 0.64751 0.68423
 C99 C -0.02387 0.62867 0.70147
 C100 C -0.00371 0.62052 0.71318
 C101 C 0.01765 0.63149 0.70821
 C102 C 0.01889 0.65103 0.69184
 H103 H 0.00340 0.73224 0.61312
 H104 H 0.03673 0.67417 0.65170
 H105 H -0.03578 0.69110 0.66518
 H106 H -0.03824 0.65270 0.67464
 H107 H -0.00459 0.60557 0.72614
 H108 H 0.03556 0.65970 0.68912
 C109 C 0.99835 0.71301 0.37759
 C110 C 0.97709 0.70693 0.36693
 C111 C 0.97606 0.68895 0.34885
 C112 C 0.99619 0.67579 0.34206
 C113 C 1.01745 0.68186 0.35358
 C114 C 1.01857 0.70074 0.37075
 C115 C 0.99496 0.65578 0.32336
 C116 C 1.01499 0.64827 0.31032
 C117 C 1.01386 0.62904 0.29354
 C118 C 0.99257 0.61793 0.28854
 C119 C 0.97252 0.62545 0.30070
 C120 C 0.97373 0.64376 0.31841
 H121 H 0.99910 0.72724 0.39132
 H122 H 0.95945 0.68551 0.34026
 H123 H 1.03323 0.67194 0.34961
 H124 H 1.03154 0.65720 0.31296
 H125 H 0.99159 0.60331 0.27525
 H126 H 0.95803 0.64823 0.32828
 C127 C 1.00982 0.28985 0.61985
 C128 C 0.98845 0.29497 0.63073
 C129 C 0.98698 0.31235 0.64937
 C130 C 1.00682 0.32579 0.65657
 C131 C 1.02820 0.32065 0.64483
 C132 C 1.02971 0.30242 0.62705
 C133 C 1.00519 0.34516 0.67587
 C134 C 1.02510 0.35264 0.68913
 C135 C 1.02367 0.37144 0.70634
 C136 C 1.00225 0.38211 0.71155
 C137 C 0.98229 0.37459 0.69921
 C138 C 0.98376 0.35670 0.68108
 H139 H 1.01095 0.27614 0.60563
 H140 H 0.97030 0.31516 0.65803
 H141 H 1.04377 0.33078 0.64908
 H142 H 1.04179 0.34406 0.68629
 H143 H 1.00107 0.39646 0.72512
 H144 H 0.96813 0.35224 0.67103
 C145 C 0.38271 -0.00270 0.28949
 C146 C 0.37117 0.01890 0.29497
 C147 C 0.35200 0.01869 0.31080
 C148 C 0.34484 -0.00303 0.32245
 C149 C 0.35717 -0.02461 0.31701
 C150 C 0.37556 -0.02449 0.30018
 C151 C 0.32489 -0.00314 0.34028
 C152 C 0.31252 -0.02475 0.34554
 C153 C 0.29456 -0.02490 0.36288
 C154 C 0.28787 -0.00335 0.37429
 C155 C 0.29941 0.01828 0.36897
 C156 C 0.31812 0.01834 0.35257
 H157 H 0.39733 -0.00250 0.27692
 H158 H 0.34287 0.03558 0.31377
 H159 H 0.35284 -0.04157 0.32589
 H160 H 0.31658 -0.04159 0.33634
 H161 H 0.27376 -0.00346 0.38748
 H162 H 0.32736 0.03521 0.34986
 C163 C 0.62004 0.00478 0.71268
 C164 C 0.62621 0.02602 0.70035
 C165 C 0.64425 0.02568 0.68316
 C166 C 0.65710 0.00421 0.67884
 C167 C 0.65089 -0.01697 0.69192
 C168 C 0.63214 -0.01676 0.70830
 C169 C 0.67665 0.00391 0.66068
 C170 C 0.68316 -0.01779 0.64865
 C171 C 0.70145 -0.01792 0.63173
 C172 C 0.71283 0.00366 0.62582
 C173 C 0.70639 0.02534 0.63713
 C174 C 0.68884 0.02543 0.65486
 H175 H 0.60570 0.00504 0.72562
 H176 H 0.64789 0.04219 0.67314
 H177 H 0.66053 -0.03369 0.68958
 H178 H 0.67398 -0.03460 0.65198
 H179 H 0.72658 0.00363 0.61221
 H180 H 0.68487 0.04238 0.66392
 C181 C 0.37870 1.00031 0.70745
 C182 C 0.36771 0.97834 0.70228
 C183 C 0.34908 0.97764 0.68572
 C184 C 0.34190 0.99888 0.67317
 C185 C 0.35384 1.02078 0.67821
 C186 C 0.37164 1.02154 0.69568
 C187 C 0.32222 0.99831 0.65501
 C188 C 0.30980 1.01970 0.64907
 C189 C 0.29221 1.01945 0.63131
 C190 C 0.28581 0.99763 0.62022
 C191 C 0.29731 0.97614 0.62633
 C192 C 0.31574 0.97650 0.64315
 H193 H 0.39279 1.00089 0.72067
 H194 H 0.34031 0.96051 0.68297
 H195 H 0.34963 1.03741 0.66866
 H196 H 0.31361 1.03673 0.65806
 H197 H 0.27198 0.99736 0.60667
 H198 H 0.32498 0.95974 0.64653
 C199 C 0.62199 0.99755 0.28918
 C200 C 0.63386 0.97627 0.29513
 C201 C 0.65157 0.97669 0.31269
 C202 C 0.65677 0.99819 0.32575
 C203 C 0.64420 1.01948 0.31977
 C204 C 0.62733 1.01921 0.30121
 C205 C 0.67480 0.99818 0.34569
 C206 C 0.68612 1.01984 0.35296
 C207 C 0.70254 1.01960 0.37196
 C208 C 0.70872 0.99772 0.38311
 C209 C 0.69816 0.97613 0.37588
 C210 C 0.68089 0.97639 0.35785
 H211 H 0.60843 0.99716 0.27533
 H212 H 0.66102 0.96004 0.31603
 H213 H 0.64711 1.03625 0.32960
 H214 H 0.68247 1.03693 0.34399
 H215 H 0.72179 0.99751 0.39748
 H216 H 0.67231 0.95945 0.35364
 O217 O 0.81254 0.84969 0.52578
 O218 O 0.84729 0.81795 0.47937
 O219 O 0.81158 0.84716 0.47892
 O220 O 0.84820 0.82040 0.52704
 O221 O 0.82447 0.78891 0.52939
 O222 O 0.78766 0.81579 0.48105
 O223 O 0.82359 0.78642 0.48147
 O224 O 0.78858 0.81836 0.52807
 Cu225 Cu 0.83243 0.83685 0.50256
 Cu226 Cu 0.80382 0.79904 0.50524
 C227 C 0.79435 0.83974 0.53421
 C228 C 0.84135 0.79686 0.47255
 C229 C 0.79313 0.83638 0.47235
 C230 C 0.84256 0.80015 0.53634
 O231 O 0.16135 0.19189 0.47393
 O232 O 0.19067 0.15766 0.52262
 O233 O 0.16052 0.19292 0.52103
 O234 O 0.19265 0.15725 0.47527
 O235 O 0.22086 0.18450 0.47558
 O236 O 0.18883 0.22008 0.52170
 O237 O 0.21915 0.18461 0.52321
 O238 O 0.18933 0.21941 0.47442
 Cu239 Cu 0.17350 0.17216 0.49808
 Cu240 Cu 0.20748 0.20484 0.49868
 C241 C 0.16989 0.21178 0.46652
 C242 C 0.20991 0.16515 0.53101
 C243 C 0.16906 0.21271 0.52878
 C244 C 0.21238 0.16461 0.46804
 O245 O 0.15501 0.80897 0.52057
 O246 O 0.18553 0.84185 0.47164
 O247 O 0.15341 0.80846 0.47347
 O248 O 0.18794 0.84190 0.51905
 O249 O 0.21476 0.81314 0.51817
 O250 O 0.18024 0.77968 0.47232
 O251 O 0.21250 0.81325 0.47053
 O252 O 0.18162 0.78000 0.51958
 Cu253 Cu 0.16784 0.82823 0.49635
 Cu254 Cu 0.20007 0.79367 0.49512
 C255 C 0.16269 0.78861 0.52780
 C256 C 0.20423 0.83327 0.46294
 C257 C 0.16077 0.78822 0.46556
 C258 C 0.20735 0.83339 0.52600
 O259 O 0.85547 0.17805 0.52534
 O260 O 0.81921 0.14595 0.48037
 O261 O 0.85489 0.17505 0.47813
 O262 O 0.81993 0.14887 0.52770
 O263 O 0.79597 0.18026 0.52608
 O264 O 0.83126 0.20670 0.47634
 O265 O 0.79538 0.17743 0.47853
 O266 O 0.83172 0.20961 0.52376
 Cu267 Cu 0.83974 0.15879 0.50305
 Cu268 Cu 0.81114 0.19669 0.50100
 C269 C 0.84992 0.19935 0.53190
 C270 C 0.80106 0.15612 0.47205
 C271 C 0.84924 0.19543 0.46913
 C272 C 0.80195 0.15995 0.53510
 O273 O 0.48000 0.85396 0.81992
 O274 O 0.52461 0.82053 0.85462
 O275 O 0.52516 0.85387 0.82083
 O276 O 0.47946 0.82100 0.85402
 O277 O 0.47963 0.79233 0.82567
 O278 O 0.52554 0.82541 0.79228
 O279 O 0.52494 0.79193 0.82620
 O280 O 0.48022 0.82542 0.79144
 Cu281 Cu 0.50230 0.84022 0.84021
 Cu282 Cu 0.50262 0.80587 0.80601
 C283 C 0.47259 0.84536 0.79982
 C284 C 0.53226 0.80056 0.84633
 C285 C 0.53301 0.84530 0.80095
 C286 C 0.47185 0.80113 0.84553
 O287 O 0.52514 0.18575 0.15433
 O288 O 0.47774 0.15440 0.18633
 O289 O 0.48034 0.18869 0.15329
 O290 O 0.52255 0.15278 0.18880
 O291 O 0.52299 0.18111 0.21749
 O292 O 0.48052 0.21689 0.18211
 O293 O 0.47799 0.18244 0.21531
 O294 O 0.52548 0.21426 0.18284
 Cu295 Cu 0.50143 0.16757 0.16781
 Cu296 Cu 0.50179 0.20153 0.20235
 C297 C 0.53300 0.20551 0.16283
 C298 C 0.47012 0.16280 0.20639
 C299 C 0.47358 0.20903 0.16153
 C300 C 0.52958 0.16069 0.20934
 O301 O 0.47251 0.19318 0.83708
 O302 O 0.51895 0.16300 0.80268
 O303 O 0.51743 0.19609 0.83705
 O304 O 0.47431 0.16082 0.80239
 O305 O 0.47274 0.18972 0.77425
 O306 O 0.51614 0.22502 0.80895
 O307 O 0.51757 0.19169 0.77432
 O308 O 0.47097 0.22227 0.80914
 Cu309 Cu 0.49601 0.17542 0.82268
 Cu310 Cu 0.49428 0.21019 0.78887
 C311 C 0.46400 0.21288 0.82907
 C312 C 0.52563 0.17177 0.78239
 C313 C 0.52382 0.21666 0.82907
 C314 C 0.46654 0.16910 0.78229
 O315 O 0.48043 0.80283 0.16322
 O316 O 0.52719 0.83700 0.19305
 O317 O 0.52508 0.80167 0.16157
 O318 O 0.48217 0.83789 0.19552
 O319 O 0.48274 0.81102 0.22565
 O320 O 0.52593 0.77474 0.19167
 O321 O 0.52805 0.81029 0.22334
 O322 O 0.48109 0.77568 0.19311
 Cu323 Cu 0.50358 0.82262 0.17539
 Cu324 Cu 0.50444 0.79028 0.21160
 C325 C 0.47335 0.78316 0.17266
 C326 C 0.53549 0.82954 0.21321
 C327 C 0.53248 0.78193 0.17069
 C328 C 0.47540 0.83074 0.21643
 O329 O 0.81124 0.47587 0.83912
 O330 O 0.84167 0.52379 0.80509
 O331 O 0.80854 0.52259 0.83801
 O332 O 0.84391 0.47716 0.80580
 O333 O 0.81746 0.47496 0.77643
 O334 O 0.78201 0.52065 0.80871
 O335 O 0.81537 0.52179 0.77557
 O336 O 0.78458 0.47372 0.80998
 Cu337 Cu 0.82897 0.50007 0.82496
 Cu338 Cu 0.79715 0.49758 0.78972
 C339 C 0.79255 0.46706 0.83062
 C340 C 0.83406 0.53045 0.78433
 C341 C 0.78909 0.52892 0.82909
 C342 C 0.83695 0.46883 0.78542
 O343 O 0.18056 0.47895 0.14538
 O344 O 0.14565 0.52484 0.17757
 O345 O 0.18048 0.52615 0.14706
 O346 O 0.14568 0.47812 0.17577
 O347 O 0.17013 0.47687 0.20706
 O348 O 0.20515 0.52509 0.17814
 O349 O 0.17017 0.52375 0.20881
 O350 O 0.20518 0.47769 0.17651
 Cu351 Cu 0.16071 0.50214 0.15823
 Cu352 Cu 0.19025 0.50075 0.19572
 C353 C 0.19875 0.47057 0.15547
 C354 C 0.15175 0.53170 0.19881
 C355 C 0.19869 0.53370 0.15766
 C356 C 0.15174 0.46971 0.19644
 O357 O 0.83921 0.47027 0.19633
 O358 O 0.80887 0.51703 0.16068
 O359 O 0.83982 0.51700 0.19566
 O360 O 0.80749 0.47032 0.16175
 O361 O 0.77968 0.47130 0.18969
 O362 O 0.81201 0.51831 0.22361
 O363 O 0.78083 0.51825 0.18838
 O364 O 0.81164 0.47137 0.22453
 Cu365 Cu 0.82664 0.49348 0.17581
 Cu366 Cu 0.79320 0.49485 0.20938
 C367 C 0.83099 0.46342 0.21673
 C368 C 0.78956 0.52521 0.16818
 C369 C 0.83159 0.52524 0.21554
 C370 C 0.78786 0.46339 0.16964
 O371 O 0.19194 0.52641 0.84735
 O372 O 0.15691 0.47969 0.81693
 O373 O 0.19257 0.47974 0.84649
 O374 O 0.15625 0.52653 0.81759
 O375 O 0.18002 0.52751 0.78576
 O376 O 0.21651 0.48048 0.81478
 O377 O 0.18060 0.48042 0.78503
 O378 O 0.21597 0.52736 0.81574
 Cu379 Cu 0.17200 0.50304 0.83526
 Cu380 Cu 0.20067 0.50408 0.79706
 C381 C 0.21016 0.53432 0.83704
 C382 C 0.16259 0.47240 0.79574
 C383 C 0.21088 0.47255 0.83579
 C384 C 0.16172 0.53458 0.79660
 C385 C 0.23753 0.42252 0.11562
 C386 C 0.26181 0.42602 0.11332
 C387 C 0.27462 0.41228 0.09591
 C388 C 0.26306 0.39515 0.08091
 C389 C 0.23908 0.39054 0.08433
 C390 C 0.22626 0.40426 0.10176
 C391 C 0.20222 0.39961 0.10458
 C392 C 0.19115 0.38189 0.09059
 C393 C 0.20368 0.36849 0.07353
 C394 C 0.22738 0.37270 0.07034
 C395 C 0.29881 0.41639 0.09362
 C396 C 0.31003 0.43356 0.10816
 C397 C 0.29750 0.44700 0.12519
 C398 C 0.27365 0.44336 0.12781
 C399 C 0.27524 0.38418 0.06042
 C400 C 0.28503 0.37640 0.04254
 C401 C 0.22391 0.43889 0.13075
 C402 C 0.21248 0.45309 0.14246
 H403 H 0.19178 0.40952 0.11769
 H404 H 0.17275 0.37853 0.09302
 H405 H 0.19501 0.35474 0.06271
 H406 H 0.23644 0.36176 0.05693
 H407 H 0.30929 0.40630 0.08069
 H408 H 0.32855 0.43644 0.10620
 H409 H 0.30630 0.46030 0.13646
 H410 H 0.26465 0.45417 0.14136
 C411 C 0.75401 0.56649 0.11860
 C412 C 0.74648 0.55372 0.09751
 C413 C 0.73552 0.56643 0.07799
 C414 C 0.73215 0.59186 0.07964
 C415 C 0.73930 0.60455 0.10089
 C416 C 0.75026 0.59182 0.12045
 C417 C 0.75734 0.60489 0.14147
 C418 C 0.75369 0.62984 0.14315
 C419 C 0.74299 0.64229 0.12403
 C420 C 0.73586 0.62988 0.10308
 C421 C 0.72824 0.55326 0.05706
 C422 C 0.73179 0.52829 0.05541
 C423 C 0.74262 0.51588 0.07443
 C424 C 0.74983 0.52832 0.09531
 C425 C 0.72167 0.60476 0.05918
 C426 C 0.71303 0.61431 0.04148
 C427 C 0.76631 0.55346 0.13780
 C428 C 0.77681 0.54135 0.15252
 H429 H 0.76570 0.59595 0.15680
 H430 H 0.75918 0.63957 0.15937
 H431 H 0.74020 0.66168 0.12543
 H432 H 0.72761 0.64032 0.08868
 H433 H 0.71976 0.56206 0.04173
 H434 H 0.72613 0.51852 0.03926
 H435 H 0.74541 0.49650 0.07303
 H436 H 0.75802 0.51777 0.10966
 C437 C 0.75550 0.42523 0.87842
 C438 C 0.75214 0.39985 0.87654
 C439 C 0.74037 0.38709 0.89553
 C440 C 0.73205 0.39981 0.91628
 C441 C 0.73496 0.42531 0.91790
 C442 C 0.74673 0.43804 0.89895
 C443 C 0.74963 0.46350 0.90116
 C444 C 0.74121 0.47597 0.92149
 C445 C 0.72958 0.46355 0.93994
 C446 C 0.72646 0.43853 0.93828
 C447 C 0.73731 0.36172 0.89331
 C448 C 0.74562 0.34927 0.87288
 C449 C 0.75714 0.36173 0.85434
 C450 C 0.76043 0.38674 0.85606
 C451 C 0.72114 0.38688 0.93645
 C452 C 0.71231 0.37752 0.95414
 C453 C 0.76855 0.43834 0.85985
 C454 C 0.77951 0.45061 0.84566
 H455 H 0.75842 0.47406 0.88724
 H456 H 0.74368 0.49540 0.92292
 H457 H 0.72297 0.47334 0.95565
 H458 H 0.71731 0.42972 0.95314
 H459 H 0.72843 0.35128 0.90727
 H460 H 0.74310 0.32985 0.87143
 H461 H 0.76357 0.35197 0.83852
 H462 H 0.76948 0.39567 0.84119
 C463 C 0.25244 0.57413 0.88145
 C464 C 0.25607 0.59946 0.87961
 C465 C 0.26830 0.61190 0.89845
 C466 C 0.27679 0.59890 0.91899
 C467 C 0.27420 0.57337 0.92020
 C468 C 0.26197 0.56094 0.90139
 C469 C 0.25918 0.53545 0.90328
 C470 C 0.26816 0.52266 0.92320
 C471 C 0.28024 0.53481 0.94151
 C472 C 0.28327 0.55987 0.94013
 C473 C 0.27145 0.63729 0.89641
 C474 C 0.26282 0.65003 0.87627
 C475 C 0.25084 0.63786 0.85786
 C476 C 0.24743 0.61286 0.85943
 C477 C 0.28633 0.61183 0.93986
 C478 C 0.29316 0.62201 0.95803
 C479 C 0.23775 0.56164 0.86389
 C480 C 0.22519 0.55000 0.85071
 H481 H 0.25007 0.52511 0.88942
 H482 H 0.26572 0.50322 0.92443
 H483 H 0.28728 0.52477 0.95688
 H484 H 0.29283 0.56849 0.95482
 H485 H 0.28071 0.64750 0.91026
 H486 H 0.26543 0.66944 0.87495
 H487 H 0.24417 0.64784 0.84227
 H488 H 0.23805 0.60414 0.84466
 C489 C 0.12474 0.25289 0.42652
 C490 C 0.12705 0.25934 0.40154
 C491 C 0.10827 0.27085 0.38911
 C492 C 0.08734 0.27583 0.40177
 C493 C 0.08546 0.27043 0.42707
 C494 C 0.10419 0.25890 0.43948
 C495 C 0.10167 0.25325 0.46468
 C496 C 0.08124 0.25872 0.47720
 C497 C 0.06298 0.27011 0.46510
 C498 C 0.06497 0.27594 0.44034
 C499 C 0.11084 0.27681 0.36405
 C500 C 0.13140 0.27163 0.35160
 C501 C 0.14976 0.26040 0.36376
 C502 C 0.14769 0.25426 0.38845
 C503 C 0.06700 0.28452 0.38859
 C504 C 0.04920 0.29041 0.37849
 C505 C 0.14270 0.23885 0.43882
 C506 C 0.15613 0.22664 0.45052
 H507 H 0.11544 0.24457 0.47499
 H508 H 0.07960 0.25416 0.49643
 H509 H 0.04717 0.27443 0.47493
 H510 H 0.05029 0.28485 0.43176
 H511 H 0.09704 0.28563 0.35389
 H512 H 0.13309 0.27635 0.33242
 H513 H 0.16570 0.25642 0.35401
 H514 H 0.16242 0.24559 0.39720
 C515 C 0.11770 0.74883 0.56948
 C516 C 0.11993 0.74463 0.59496
 C517 C 0.10161 0.73309 0.60805
 C518 C 0.08117 0.72583 0.59557
 C519 C 0.07938 0.72909 0.56989
 C520 C 0.09766 0.74064 0.55681
 C521 C 0.09522 0.74409 0.53120
 C522 C 0.07528 0.73643 0.51891
 C523 C 0.05749 0.72501 0.53168
 C524 C 0.05941 0.72133 0.55687
 C525 C 0.10412 0.72935 0.63357
 C526 C 0.12416 0.73677 0.64583
 C527 C 0.14205 0.74807 0.63303
 C528 C 0.14005 0.75201 0.60788
 C529 C 0.06126 0.71681 0.60921
 C530 C 0.04397 0.71042 0.61994
 C531 C 0.13526 0.76261 0.55629
 C532 C 0.14862 0.77441 0.54411
 H533 H 0.10863 0.75272 0.52038
 H534 H 0.07365 0.73937 0.49937
 H535 H 0.04208 0.71900 0.52203
 H536 H 0.04511 0.71232 0.56598
 H537 H 0.09069 0.72057 0.64426
 H538 H 0.12581 0.73374 0.66536
 H539 H 0.15757 0.75380 0.64265
 H540 H 0.15442 0.76081 0.59867
 C541 C 0.88429 0.76275 0.42379
 C542 C 0.90021 0.77698 0.41017
 C543 C 0.91786 0.76549 0.39611
 C544 C 0.91946 0.73985 0.39572
 C545 C 0.90276 0.72562 0.40825
 C546 C 0.88513 0.73711 0.42235
 C547 C 0.86884 0.72251 0.43501
 C548 C 0.86990 0.69726 0.43374
 C549 C 0.88713 0.68603 0.41995
 C550 C 0.90344 0.69996 0.40734
 C551 C 0.93381 0.78009 0.38297
 C552 C 0.93231 0.80534 0.38362
 C553 C 0.91504 0.81657 0.39734
 C554 C 0.89915 0.80265 0.41053
 C555 C 0.93925 0.72821 0.38411
 C556 C 0.95624 0.71855 0.37560
 C557 C 0.86812 0.77447 0.44045
 C558 C 0.85545 0.78448 0.45486
 H559 H 0.85509 0.73043 0.44591
 H560 H 0.85726 0.68637 0.44349
 H561 H 0.88787 0.66642 0.41902
 H562 H 0.91648 0.69040 0.39680
 H563 H 0.94750 0.77217 0.37197
 H564 H 0.94462 0.81623 0.37341
 H565 H 0.91395 0.83618 0.39777
 H566 H 0.88598 0.81221 0.42089
 C567 C 0.89708 0.23660 0.57328
 C568 C 0.89493 0.24057 0.59881
 C569 C 0.91289 0.25284 0.61176
 C570 C 0.93289 0.26099 0.59909
 C571 C 0.93492 0.25723 0.57349
 C572 C 0.91695 0.24506 0.56055
 C573 C 0.91936 0.24159 0.53494
 C574 C 0.93895 0.24990 0.52251
 C575 C 0.95657 0.26170 0.53518
 C576 C 0.95468 0.26538 0.56036
 C577 C 0.91039 0.25661 0.63726
 C578 C 0.89068 0.24849 0.64964
 C579 C 0.87313 0.23647 0.63700
 C580 C 0.87515 0.23250 0.61186
 C581 C 0.95162 0.27305 0.61212
 C582 C 0.96799 0.28306 0.62152
 C583 C 0.87922 0.22346 0.55996
 C584 C 0.86527 0.21246 0.54778
 H585 H 0.90615 0.23250 0.52422
 H586 H 0.94045 0.24718 0.50293
 H587 H 0.97179 0.26809 0.52545
 H588 H 0.96887 0.27470 0.56934
 H589 H 0.92359 0.26588 0.64784
 H590 H 0.88902 0.25154 0.66916
 H591 H 0.85787 0.23020 0.64671
 H592 H 0.86105 0.22309 0.60278
 C593 C 0.42562 0.11876 0.24417
 C594 C 0.40371 0.11187 0.23459
 C595 C 0.39088 0.09286 0.24592
 C596 C 0.40006 0.08083 0.26673
 C597 C 0.42146 0.08851 0.27699
 C598 C 0.43426 0.10754 0.26569
 C599 C 0.45576 0.11466 0.27610
 C600 C 0.46433 0.10337 0.29710
 C601 C 0.45187 0.08471 0.30810
 C602 C 0.43067 0.07730 0.29825
 C603 C 0.36917 0.08608 0.23583
 C604 C 0.36036 0.09777 0.21514
 C605 C 0.37291 0.11633 0.20405
 C606 C 0.39436 0.12337 0.21358
 C607 C 0.38841 0.05959 0.27670
 C608 C 0.37986 0.04134 0.28498
 C609 C 0.44017 0.13585 0.23090
 C610 C 0.45327 0.14891 0.21975
 H611 H 0.46612 0.12907 0.26819
 H612 H 0.48080 0.10905 0.30481
 H613 H 0.45866 0.07592 0.32436
 H614 H 0.42159 0.06276 0.30753
 H615 H 0.35876 0.07178 0.24388
 H616 H 0.34370 0.09239 0.20767
 H617 H 0.36599 0.12534 0.18798
 H618 H 0.40347 0.13795 0.20439
 C619 C 0.56539 0.12575 0.74175
 C620 C 0.58956 0.12812 0.73768
 C621 C 0.60214 0.10879 0.72661
 C622 C 0.59042 0.08725 0.71972
 C623 C 0.56604 0.08540 0.72265
 C624 C 0.55348 0.10469 0.73374
 C625 C 0.52915 0.10218 0.73697
 C626 C 0.51762 0.08120 0.72952
 C627 C 0.52989 0.06242 0.71852
 C628 C 0.55382 0.06439 0.71508
 C629 C 0.62636 0.11142 0.72300
 C630 C 0.63784 0.13255 0.73011
 C631 C 0.62554 0.15143 0.74097
 C632 C 0.60166 0.14933 0.74477
 C633 C 0.60355 0.06625 0.71155
 C634 C 0.61406 0.04819 0.70584
 C635 C 0.55283 0.14401 0.75560
 C636 C 0.54119 0.15769 0.76767
 H637 H 0.51877 0.11635 0.74525
 H638 H 0.49906 0.07952 0.73231
 H639 H 0.52082 0.04622 0.71267
 H640 H 0.56259 0.04930 0.70639
 H641 H 0.63662 0.09724 0.71455
 H642 H 0.65638 0.13429 0.72718
 H643 H 0.63454 0.16779 0.74647
 H644 H 0.59279 0.16449 0.75321
 C645 C 0.42510 0.88547 0.76130
 C646 C 0.40742 0.89822 0.77394
 C647 C 0.39325 0.91520 0.76117
 C648 C 0.39684 0.91928 0.73583
 C649 C 0.41359 0.90548 0.72291
 C650 C 0.42777 0.88852 0.73569
 C651 C 0.44464 0.87519 0.72245
 C652 C 0.44741 0.87852 0.69730
 C653 C 0.43356 0.89512 0.68481
 C654 C 0.41682 0.90851 0.69738
 C655 C 0.37597 0.92805 0.77426
 C656 C 0.37271 0.92419 0.79927
 C657 C 0.38652 0.90755 0.81176
 C658 C 0.40372 0.89467 0.79933
 C659 C 0.38496 0.93919 0.72363
 C660 C 0.37632 0.95658 0.71375
 C661 C 0.44146 0.87048 0.77485
 C662 C 0.45550 0.85870 0.78620
 H663 H 0.45576 0.86202 0.73137
 H664 H 0.46037 0.86814 0.68745
 H665 H 0.43578 0.89763 0.66527
 H666 H 0.40639 0.92113 0.68686
 H667 H 0.36473 0.94110 0.76530
 H668 H 0.35938 0.93415 0.80901
 H669 H 0.38390 0.90459 0.83118
 H670 H 0.41399 0.88187 0.80981
 C671 C 0.58290 0.87439 0.24556
 C672 C 0.59809 0.88813 0.23056
 C673 C 0.61106 0.90757 0.24084
 C674 C 0.60877 0.91311 0.26604
 C675 C 0.59474 0.89838 0.28132
 C676 C 0.58170 0.87900 0.27103
 C677 C 0.56737 0.86487 0.28656
 C678 C 0.56608 0.86966 0.31159
 C679 C 0.57892 0.88854 0.32169
 C680 C 0.59309 0.90282 0.30681
 C681 C 0.62583 0.92133 0.22545
 C682 C 0.62781 0.91595 0.20058
 C683 C 0.61512 0.89693 0.19051
 C684 C 0.60037 0.88315 0.20524
 C685 C 0.61916 0.93505 0.27588
 C686 C 0.62656 0.95369 0.28439
 C687 C 0.56704 0.85710 0.23447
 C688 C 0.55303 0.84384 0.22499
 H689 H 0.55714 0.84993 0.27955
 H690 H 0.55508 0.85863 0.32322
 H691 H 0.57791 0.89215 0.34116
 H692 H 0.60280 0.91726 0.31552
 H693 H 0.63608 0.93624 0.23250
 H694 H 0.63926 0.92659 0.18907
 H695 H 0.61672 0.89283 0.17119
 H696 H 0.59089 0.86849 0.19661
 C697 C 0.41819 0.24716 0.87443
 C698 C 0.40064 0.23373 0.88654
 C699 C 0.38805 0.24443 0.90616
 C700 C 0.39307 0.26849 0.91349
 C701 C 0.40969 0.28237 0.90045
 C702 C 0.42233 0.27165 0.88090
 C703 C 0.43926 0.28569 0.86850
 C704 C 0.44351 0.30968 0.87519
 C705 C 0.43108 0.32021 0.89426
 C706 C 0.41435 0.30680 0.90682
 C707 C 0.37090 0.23052 0.91833
 C708 C 0.36628 0.20670 0.91127
 C709 C 0.37859 0.19623 0.89206
 C710 C 0.39561 0.20951 0.87979
 C711 C 0.38264 0.27833 0.93556
 C712 C 0.37512 0.28662 0.95438
 C713 C 0.43338 0.23521 0.85699
 C714 C 0.44691 0.22512 0.84358
 H715 H 0.44929 0.27831 0.85348
 H716 H 0.45651 0.32016 0.86550
 H717 H 0.43440 0.33887 0.89937
 H718 H 0.40507 0.31579 0.92147
 H719 H 0.36086 0.23794 0.93332
 H720 H 0.35308 0.19632 0.92076
 H721 H 0.37495 0.17772 0.88664
 H722 H 0.40469 0.20064 0.86492
 C723 C 0.57902 0.76303 0.88831
 C724 C 0.57890 0.73733 0.88829
 C725 C 0.59252 0.72436 0.90567
 C726 C 0.60614 0.73717 0.92298
 C727 C 0.60731 0.76282 0.92206
 C728 C 0.59371 0.77580 0.90466
 C729 C 0.59491 0.80146 0.90430
 C730 C 0.60919 0.81394 0.92063
 C731 C 0.62248 0.80125 0.93765
 C732 C 0.62159 0.77598 0.93846
 C733 C 0.59189 0.69868 0.90552
 C734 C 0.57822 0.68616 0.88865
 C735 C 0.56488 0.69885 0.87166
 C736 C 0.56513 0.72415 0.87142
 C737 C 0.61711 0.72415 0.94307
 C738 C 0.62496 0.71346 0.96051
 C739 C 0.56301 0.77630 0.87264
 C740 C 0.54919 0.78735 0.86029
 H741 H 0.58494 0.81211 0.89134
 H742 H 0.60996 0.83357 0.92006
 H743 H 0.63355 0.81103 0.95029
 H744 H 0.63232 0.76688 0.95195
 H745 H 0.60205 0.68802 0.91832
 H746 H 0.57798 0.66651 0.88874
 H747 H 0.55429 0.68905 0.85858
 H748 H 0.55452 0.73323 0.85782
 C749 C 0.43328 0.74224 0.12706
 C750 C 0.40893 0.73917 0.12902
 C751 C 0.39637 0.72805 0.10959
 C752 C 0.40827 0.72010 0.08835
 C753 C 0.43278 0.72197 0.08699
 C754 C 0.44533 0.73311 0.10638
 C755 C 0.46979 0.73530 0.10431
 C756 C 0.48147 0.72680 0.08367
 C757 C 0.46920 0.71576 0.06479
 C758 C 0.44513 0.71332 0.06633
 C759 C 0.37199 0.72550 0.11176
 C760 C 0.36034 0.73370 0.13256
 C761 C 0.37263 0.74460 0.15155
 C762 C 0.39667 0.74737 0.14989
 C763 C 0.39529 0.71206 0.06703
 C764 C 0.38501 0.70654 0.04860
 C765 C 0.44592 0.75625 0.14522
 C766 C 0.45765 0.76841 0.15877
 H767 H 0.48017 0.74359 0.11858
 H768 H 0.50014 0.72881 0.08231
 H769 H 0.47837 0.70910 0.04884
 H770 H 0.43636 0.70456 0.05119
 H771 H 0.36173 0.71706 0.09748
 H772 H 0.34168 0.73159 0.13395
 H773 H 0.36350 0.75095 0.16765
 H774 H 0.40553 0.75589 0.16512
 C775 C 0.57645 0.24353 0.11774
 C776 C 0.59824 0.23434 0.11006
 C777 C 0.61054 0.24598 0.09073
 C778 C 0.60094 0.26672 0.07917
 C779 C 0.57963 0.27654 0.08761
 C780 C 0.56738 0.26495 0.10697
 C781 C 0.54600 0.27498 0.11490
 C782 C 0.53700 0.29588 0.10404
 C783 C 0.54892 0.30715 0.08504
 C784 C 0.56999 0.29768 0.07684
 C785 C 0.63216 0.23631 0.08318
 C786 C 0.64141 0.21573 0.09443
 C787 C 0.62938 0.20433 0.11331
 C788 C 0.60802 0.21344 0.12109
 C789 C 0.61212 0.27720 0.05775
 C790 C 0.62026 0.28603 0.03943
 C791 C 0.56240 0.23005 0.13520
 C792 C 0.54963 0.21882 0.14857
 H793 H 0.53607 0.26688 0.12962
 H794 H 0.52063 0.30330 0.11035
 H795 H 0.54181 0.32333 0.07661
 H796 H 0.57864 0.30716 0.06206
 H797 H 0.64216 0.24459 0.06860
 H798 H 0.65801 0.20858 0.08847
 H799 H 0.63665 0.18835 0.12198
 H800 H 0.59932 0.20402 0.13588
 C801 C 0.24259 0.11948 0.57897
 C802 C 0.26678 0.11525 0.57684
 C803 C 0.27726 0.09583 0.58999
 C804 C 0.26347 0.08068 0.60510
 C805 C 0.23953 0.08571 0.60824
 C806 C 0.22906 0.10519 0.59515
 C807 C 0.20502 0.10967 0.59832
 C808 C 0.19171 0.09533 0.61400
 C809 C 0.20195 0.07626 0.62677
 C810 C 0.22558 0.07140 0.62397
 C811 C 0.30143 0.09178 0.58735
 C812 C 0.31486 0.10650 0.57214
 C813 C 0.30458 0.12544 0.55922
 C814 C 0.28081 0.12984 0.56146
 C815 C 0.27358 0.05899 0.61588
 C816 C 0.28217 0.04057 0.62371
 C817 C 0.23133 0.13704 0.56302
 C818 C 0.22173 0.15056 0.54887
 H819 H 0.19632 0.12435 0.58882
 H820 H 0.17335 0.09904 0.61624
 H821 H 0.19154 0.06517 0.63893
 H822 H 0.23280 0.05642 0.63433
 H823 H 0.31021 0.07731 0.59709
 H824 H 0.33333 0.10318 0.57039
 H825 H 0.31506 0.13682 0.54742
 H826 H 0.27361 0.14484 0.55112
 C827 C 0.75868 0.11439 0.42925
 C828 C 0.74244 0.09952 0.44170
 C829 C 0.72944 0.08194 0.42849
 C830 C 0.73279 0.07928 0.40291
 C831 C 0.74820 0.09492 0.39029
 C832 C 0.76119 0.11255 0.40351
 C833 C 0.77672 0.12778 0.39056
 C834 C 0.77930 0.12570 0.36525
 C835 C 0.76659 0.10846 0.35233
 C836 C 0.75121 0.09317 0.36463
 C837 C 0.71352 0.06706 0.44140
 C838 C 0.71059 0.06944 0.46663
 C839 C 0.72334 0.08660 0.47956
 C840 C 0.73908 0.10154 0.46734
 C841 C 0.72166 0.05928 0.39017
 C842 C 0.71276 0.04169 0.38096
 C843 C 0.77369 0.13040 0.44326
 C844 C 0.78623 0.14271 0.45586
 H845 H 0.78692 0.14149 0.39984
 H846 H 0.79123 0.13752 0.35561
 H847 H 0.76866 0.10693 0.33268
 H848 H 0.74163 0.08008 0.35383
 H849 H 0.70314 0.05348 0.43216
 H850 H 0.69836 0.05791 0.47620
 H851 H 0.72105 0.08833 0.49916
 H852 H 0.74851 0.11467 0.47821
 C853 C 0.75169 0.88449 0.57314
 C854 C 0.74224 0.90406 0.55951
 C855 C 0.72955 0.92261 0.57167
 C856 C 0.72644 0.92151 0.59739
 C857 C 0.73494 0.90136 0.61082
 C858 C 0.74761 0.88278 0.59865
 C859 C 0.75620 0.86298 0.61248
 C860 C 0.75236 0.86155 0.63766
 C861 C 0.73998 0.87972 0.64957
 C862 C 0.73134 0.89946 0.63640
 C863 C 0.72054 0.94216 0.55772
 C864 C 0.72407 0.94342 0.53249
 C865 C 0.73659 0.92537 0.52061
 C866 C 0.74552 0.90582 0.53383
 C867 C 0.71628 0.94207 0.61011
 C868 C 0.70889 0.95992 0.62023
 C869 C 0.76663 0.86705 0.56094
 C870 C 0.77931 0.85379 0.54957
 H871 H 0.76589 0.84840 0.60397
 H872 H 0.75903 0.84625 0.64797
 H873 H 0.73704 0.87852 0.66913
 H874 H 0.72175 0.91313 0.64643
 H875 H 0.71065 0.95664 0.56614
 H876 H 0.71708 0.95852 0.52211
 H877 H 0.73937 0.92648 0.50102
 H878 H 0.75498 0.89214 0.52369
 C879 C 0.23917 0.87657 0.41445
 C880 C 0.22646 0.89242 0.39899
 C881 C 0.23821 0.91096 0.38575
 C882 C 0.26260 0.91354 0.38804
 C883 C 0.27546 0.89679 0.40236
 C884 C 0.26370 0.87827 0.41563
 C885 C 0.27688 0.86205 0.43021
 C886 C 0.30100 0.86401 0.43158
 C887 C 0.31250 0.88209 0.41857
 C888 C 0.29996 0.89835 0.40411
 C889 C 0.22509 0.92687 0.37077
 C890 C 0.20103 0.92451 0.36888
 C891 C 0.18954 0.90637 0.38180
 C892 C 0.20202 0.89047 0.39673
 C893 C 0.27413 0.93460 0.37756
 C894 C 0.28352 0.95275 0.37011
 C895 C 0.22690 0.85997 0.43064
 C896 C 0.21662 0.84717 0.44493
 H897 H 0.26870 0.84765 0.44058
 H898 H 0.31081 0.85142 0.44279
 H899 H 0.33124 0.88352 0.41966
 H900 H 0.30966 0.91206 0.39424
 H901 H 0.23329 0.94120 0.36031
 H902 H 0.19127 0.93682 0.35731
 H903 H 0.17085 0.90460 0.38027
 H904 H 0.19234 0.87659 0.40637
 C905 C 0.11474 0.42954 0.76153
 C906 C 0.09201 0.43939 0.76074
 C907 C 0.07374 0.42616 0.74941
 C908 C 0.07832 0.40314 0.73891
 C909 C 0.10103 0.39328 0.73970
 C910 C 0.11932 0.40652 0.75109
 C911 C 0.14187 0.39630 0.75171
 C912 C 0.14627 0.37365 0.74133
 C913 C 0.12841 0.36074 0.73014
 C914 C 0.10601 0.37036 0.72928
 C915 C 0.05115 0.43643 0.74884
 C916 C 0.04673 0.45907 0.75919
 C917 C 0.06458 0.47199 0.77031
 C918 C 0.08698 0.46239 0.77109
 C919 C 0.05954 0.39001 0.72704
 C920 C 0.04312 0.38048 0.71728
 C921 C 0.13321 0.44330 0.77321
 C922 C 0.14739 0.45591 0.78329
 H923 H 0.15630 0.40570 0.76020
 H924 H 0.16363 0.36609 0.74197
 H925 H 0.13193 0.34317 0.72209
 H926 H 0.09266 0.35968 0.72039
 H927 H 0.03665 0.42711 0.74042
 H928 H 0.02936 0.46663 0.75857
 H929 H 0.06109 0.48960 0.77830
 H930 H 0.10026 0.47323 0.77987
 C931 C 0.10574 0.57322 0.23740
 C932 C 0.10393 0.59875 0.23504
 C933 C 0.08581 0.61143 0.24731
 C934 C 0.06964 0.59849 0.26186
 C935 C 0.07184 0.57303 0.26475
 C936 C 0.08995 0.56036 0.25251
 C937 C 0.09171 0.53488 0.25560
 C938 C 0.07609 0.52231 0.27040
 C939 C 0.05834 0.53467 0.28231
 C940 C 0.05615 0.55973 0.27958
 C941 C 0.08424 0.63691 0.24456
 C942 C 0.10015 0.64954 0.23011
 C943 C 0.11787 0.63715 0.21812
 C944 C 0.11981 0.61203 0.22048
 C945 C 0.05022 0.61102 0.27325
 C946 C 0.03346 0.62020 0.28274
 C947 C 0.12315 0.55987 0.22362
 C948 C 0.13675 0.54766 0.21221
 H949 H 0.10521 0.52441 0.24672
 H950 H 0.07778 0.50286 0.27266
 H951 H 0.04621 0.52481 0.29375
 H952 H 0.04208 0.56851 0.28929
 H953 H 0.07078 0.64732 0.25357
 H954 H 0.09873 0.66905 0.22822
 H955 H 0.13018 0.64705 0.20693
 H956 H 0.13389 0.60317 0.21085
 C957 C 0.87655 0.42449 0.25842
 C958 C 0.89640 0.43788 0.26578
 C959 C 0.91543 0.42578 0.27706
 C960 C 0.91455 0.40037 0.28091
 C961 C 0.89424 0.38721 0.27470
 C962 C 0.87518 0.39932 0.26340
 C963 C 0.85521 0.38575 0.25701
 C964 C 0.85407 0.36090 0.26171
 C965 C 0.87271 0.34906 0.27275
 C966 C 0.89263 0.36198 0.27918
 C967 C 0.93525 0.43947 0.28386
 C968 C 0.93627 0.46438 0.27953
 C969 C 0.91771 0.47620 0.26841
 C970 C 0.89792 0.46323 0.26167
 C971 C 0.93530 0.38769 0.28911
 C972 C 0.95337 0.37794 0.29458
 C973 C 0.85851 0.43655 0.24426
 C974 C 0.84497 0.44793 0.23189
 H975 H 0.84030 0.39422 0.24843
 H976 H 0.83865 0.35078 0.25675
 H977 H 0.87173 0.32976 0.27635
 H978 H 0.90668 0.35203 0.28778
 H979 H 0.95013 0.43111 0.29260
 H980 H 0.95156 0.47456 0.28482
 H981 H 0.91863 0.49553 0.26498
 H982 H 0.88389 0.47332 0.25323
 C983 C 0.87810 0.57304 0.74434
 C984 C 0.88258 0.59757 0.75039
 C985 C 0.90157 0.60995 0.73933
 C986 C 0.91603 0.59769 0.72237
 C987 C 0.91075 0.57358 0.71531
 C988 C 0.89169 0.56125 0.72627
 C989 C 0.88690 0.53707 0.71908
 C990 C 0.90050 0.52545 0.70152
 C991 C 0.91923 0.53745 0.69094
 C992 C 0.92438 0.56124 0.69769
 C993 C 0.90587 0.63439 0.74589
 C994 C 0.89181 0.64626 0.76287
 C995 C 0.87328 0.63413 0.77372
 C996 C 0.86865 0.61005 0.76763
 C997 C 0.93721 0.60920 0.71363
 C998 C 0.95528 0.61845 0.70739
 C999 C 0.86096 0.55925 0.75810
 C1000 C 0.84790 0.54678 0.76996
 H1001 H 0.87255 0.52696 0.72683
 H1002 H 0.89657 0.50697 0.69621
 H1003 H 0.92981 0.52829 0.67741
 H1004 H 0.93906 0.56988 0.68888
 H1005 H 0.92004 0.64459 0.73789
 H1006 H 0.89531 0.66497 0.76765
 H1007 H 0.86242 0.64343 0.78691
 H1008 H 0.85400 0.60137 0.77646
 C1009 C 0.74701 0.56928 0.87346
 C1010 C 0.75136 0.59402 0.87870
 C1011 C 0.73903 0.60572 0.89792
 C1012 C 0.72246 0.59259 0.91181
 C1013 C 0.71714 0.56827 0.90561
 C1014 C 0.72942 0.55659 0.88634
 C1015 C 0.72396 0.53218 0.88065
 C1016 C 0.70682 0.51970 0.89356
 C1017 C 0.69492 0.53108 0.91250
 C1018 C 0.69996 0.55509 0.91855
 C1019 C 0.74390 0.63038 0.90305
 C1020 C 0.76044 0.64312 0.88953
 C1021 C 0.77249 0.63166 0.87073
 C1022 C 0.76810 0.60737 0.86532
 C1023 C 0.71239 0.60339 0.93364
 C1024 C 0.70506 0.61198 0.95243
 C1025 C 0.76178 0.55627 0.85634
 C1026 C 0.77426 0.54445 0.84322
 H1027 H 0.73277 0.52252 0.86609
 H1028 H 0.70283 0.50106 0.88893
 H1029 H 0.68169 0.52128 0.92255
 H1030 H 0.69017 0.56322 0.93335
 H1031 H 0.73491 0.64008 0.91745
 H1032 H 0.76391 0.66200 0.89364
 H1033 H 0.78531 0.64165 0.86027
 H1034 H 0.77784 0.59923 0.85049
 C1035 C 0.25357 0.42972 0.87697
 C1036 C 0.27263 0.44115 0.88866
 C1037 C 0.28472 0.42894 0.90776
 C1038 C 0.27772 0.40536 0.91493
 C1039 C 0.25976 0.39328 0.90203
 C1040 C 0.24764 0.40552 0.88298
 C1041 C 0.22949 0.39328 0.87060
 C1042 C 0.22350 0.36955 0.87685
 C1043 C 0.23533 0.35757 0.89551
 C1044 C 0.25326 0.36922 0.90804
 C1045 C 0.30338 0.44090 0.91958
 C1046 C 0.31003 0.46422 0.91257
 C1047 C 0.29830 0.47612 0.89379
 C1048 C 0.27972 0.46485 0.88199
 C1049 C 0.28763 0.39428 0.93670
 C1050 C 0.29480 0.38514 0.95530
 C1051 C 0.23874 0.44370 0.86072
 C1052 C 0.22606 0.45626 0.84855
 H1053 H 0.21987 0.40185 0.85588
 H1054 H 0.20961 0.36042 0.86715
 H1055 H 0.23062 0.33915 0.90029
 H1056 H 0.26201 0.35914 0.92237
 H1057 H 0.31308 0.43231 0.93421
 H1058 H 0.32438 0.47311 0.92176
 H1059 H 0.30353 0.49424 0.88842
 H1060 H 0.27111 0.47484 0.86750
 C1061 C 0.23754 0.58316 0.11992
 C1062 C 0.22661 0.60331 0.10863
 C1063 C 0.23895 0.61736 0.09108
 C1064 C 0.26210 0.61115 0.08499
 C1065 C 0.27353 0.59206 0.09754
 C1066 C 0.26120 0.57799 0.11505
 C1067 C 0.27281 0.55864 0.12699
 C1068 C 0.29598 0.55337 0.12179
 C1069 C 0.30807 0.56715 0.10466
 C1070 C 0.29705 0.58628 0.09260
 C1071 C 0.22756 0.63713 0.07963
 C1072 C 0.20462 0.64290 0.08543
 C1073 C 0.19255 0.62917 0.10261
 C1074 C 0.20333 0.60956 0.11412
 C1075 C 0.27336 0.62264 0.06424
 C1076 C 0.28264 0.63081 0.04626
 C1077 C 0.22394 0.56645 0.13463
 C1078 C 0.21250 0.55182 0.14575
 H1079 H 0.26414 0.54748 0.14053
 H1080 H 0.30461 0.53852 0.13111
 H1081 H 0.32607 0.56299 0.10070
 H1082 H 0.30719 0.59654 0.07950
 H1083 H 0.23630 0.64837 0.06622
 H1084 H 0.19617 0.65811 0.07654
 H1085 H 0.17474 0.63373 0.10706
 H1086 H 0.19329 0.59944 0.12743
 C1087 C 0.74800 0.42336 0.12279
 C1088 C 0.73058 0.43624 0.10978
 C1089 C 0.71860 0.42485 0.09012
 C1090 C 0.72402 0.40062 0.08366
 C1091 C 0.74058 0.38735 0.09749
 C1092 C 0.75262 0.39877 0.11710
 C1093 C 0.76932 0.38528 0.13044
 C1094 C 0.77395 0.36113 0.12462
 C1095 C 0.76217 0.34994 0.10546
 C1096 C 0.74568 0.36282 0.09196
 C1097 C 0.70156 0.43821 0.07711
 C1098 C 0.69638 0.46211 0.08344
 C1099 C 0.70800 0.47321 0.10275
 C1100 C 0.72499 0.46056 0.11576
 C1101 C 0.71378 0.38993 0.06186
 C1102 C 0.70609 0.38138 0.04321
 C1103 C 0.76215 0.43602 0.14073
 C1104 C 0.77399 0.44773 0.15461
 H1105 H 0.77887 0.39321 0.14554
 H1106 H 0.78674 0.35104 0.13505
 H1107 H 0.76583 0.33117 0.10103
 H1108 H 0.73692 0.35333 0.07726
 H1109 H 0.69199 0.43032 0.06201
 H1110 H 0.68328 0.47206 0.07332
 H1111 H 0.70392 0.49179 0.10760
 H1112 H 0.73358 0.47002 0.13059
 C1113 C 0.88773 0.77028 0.58575
 C1114 C 0.88549 0.74583 0.59341
 C1115 C 0.90367 0.73465 0.60701
 C1116 C 0.92396 0.74798 0.61282
 C1117 C 0.92560 0.77283 0.60642
 C1118 C 0.90741 0.78402 0.59285
 C1119 C 0.90958 0.80880 0.58634
 C1120 C 0.92916 0.82213 0.59306
 C1121 C 0.94695 0.81117 0.60631
 C1122 C 0.94530 0.78680 0.61295
 C1123 C 0.90120 0.71009 0.61417
 C1124 C 0.88132 0.69695 0.60809
 C1125 C 0.86355 0.70789 0.59477
 C1126 C 0.86553 0.73204 0.58744
 C1127 C 0.94392 0.73567 0.62338
 C1128 C 0.96093 0.72525 0.63089
 C1129 C 0.87076 0.78077 0.56912
 C1130 C 0.85743 0.78953 0.55452
 H1131 H 0.89616 0.81814 0.57610
 H1132 H 0.93052 0.84107 0.58795
 H1133 H 0.96212 0.82160 0.61148
 H1134 H 0.95954 0.77908 0.62333
 H1135 H 0.91454 0.70084 0.62463
 H1136 H 0.87969 0.67819 0.61375
 H1137 H 0.84814 0.69760 0.59009
 H1138 H 0.85123 0.73981 0.57717
 C1139 C 0.89668 0.22625 0.42319
 C1140 C 0.89128 0.23793 0.40079
 C1141 C 0.90920 0.24941 0.38708
 C1142 C 0.93235 0.24906 0.39588
 C1143 C 0.93782 0.23690 0.41803
 C1144 C 0.91992 0.22548 0.43174
 C1145 C 0.92579 0.21362 0.45396
 C1146 C 0.94867 0.21303 0.46234
 C1147 C 0.96617 0.22422 0.44894
 C1148 C 0.96092 0.23603 0.42703
 C1149 C 0.90341 0.26117 0.36484
 C1150 C 0.88055 0.26154 0.35634
 C1151 C 0.86304 0.25029 0.36973
 C1152 C 0.86825 0.23859 0.39173
 C1153 C 0.95052 0.26202 0.38292
 C1154 C 0.96634 0.27291 0.37356
 C1155 C 0.87844 0.21548 0.43799
 C1156 C 0.86438 0.20641 0.45152
 H1157 H 0.91282 0.20465 0.46510
 H1158 H 0.95282 0.20390 0.47937
 H1159 H 0.98392 0.22375 0.45554
 H1160 H 0.97518 0.24441 0.41726
 H1161 H 0.91647 0.27014 0.35380
 H1162 H 0.87641 0.27061 0.33927
 H1163 H 0.84532 0.25062 0.36304
 H1164 H 0.85406 0.23007 0.40152
 C1165 C 0.12667 0.25520 0.57065
 C1166 C 0.11340 0.27303 0.55820
 C1167 C 0.09513 0.28525 0.57062
 C1168 C 0.09035 0.27968 0.59543
 C1169 C 0.10465 0.26307 0.60832
 C1170 C 0.12285 0.25075 0.59586
 C1171 C 0.13665 0.23389 0.60897
 C1172 C 0.13263 0.22938 0.63374
 C1173 C 0.11484 0.24145 0.64595
 C1174 C 0.10093 0.25810 0.63346
 C1175 C 0.08174 0.30260 0.55767
 C1176 C 0.08642 0.30789 0.53318
 C1177 C 0.10442 0.29608 0.52108
 C1178 C 0.11774 0.27874 0.53332
 C1179 C 0.06956 0.28925 0.60700
 C1180 C 0.05169 0.29598 0.61630
 C1181 C 0.14290 0.24025 0.55700
 C1182 C 0.15540 0.22762 0.54472
 H1183 H 0.15073 0.22416 0.60024
 H1184 H 0.14340 0.21647 0.64351
 H1185 H 0.11179 0.23791 0.66520
 H1186 H 0.08735 0.26712 0.64371
 H1187 H 0.06765 0.31234 0.56637
 H1188 H 0.07604 0.32125 0.52356
 H1189 H 0.10803 0.30027 0.50207
 H1190 H 0.13152 0.26999 0.52313
 C1191 C 0.11570 0.74820 0.42421
 C1192 C 0.10950 0.75498 0.40006
 C1193 C 0.09075 0.74310 0.38806
 C1194 C 0.07828 0.72457 0.40035
 C1195 C 0.08530 0.71689 0.42399
 C1196 C 0.10409 0.72873 0.43595
 C1197 C 0.11063 0.72093 0.45972
 C1198 C 0.09898 0.70194 0.47128
 C1199 C 0.08054 0.69043 0.45962
 C1200 C 0.07370 0.69776 0.43624
 C1201 C 0.08468 0.75038 0.36401
 C1202 C 0.09679 0.76888 0.35215
 C1203 C 0.11509 0.78053 0.36391
 C1204 C 0.12145 0.77374 0.38760
 C1205 C 0.05726 0.71476 0.38944
 C1206 C 0.03930 0.70764 0.38060
 C1207 C 0.13278 0.76228 0.43768
 C1208 C 0.14609 0.77417 0.44979
 H1209 H 0.12483 0.72934 0.46956
 H1210 H 0.10421 0.69621 0.48946
 H1211 H 0.07150 0.67575 0.46872
 H1212 H 0.05932 0.68819 0.42784
 H1213 H 0.07061 0.74180 0.35409
 H1214 H 0.09193 0.77421 0.33374
 H1215 H 0.12444 0.79490 0.35462
 H1216 H 0.13585 0.78326 0.39598
 C1217 C 0.58052 0.88717 0.76484
 C1218 C 0.59515 0.90261 0.77871
 C1219 C 0.60838 0.92088 0.76673
 C1220 C 0.60694 0.92352 0.74097
 C1221 C 0.59353 0.90704 0.72697
 C1222 C 0.58025 0.88881 0.73895
 C1223 C 0.56660 0.87283 0.72464
 C1224 C 0.56613 0.87477 0.69917
 C1225 C 0.57915 0.89258 0.68744
 C1226 C 0.59271 0.90859 0.70109
 C1227 C 0.62251 0.93644 0.78100
 C1228 C 0.62360 0.93395 0.80640
 C1229 C 0.61069 0.91605 0.81812
 C1230 C 0.59658 0.90052 0.80452
 C1231 C 0.61742 0.94443 0.72917
 C1232 C 0.62494 0.96242 0.71939
 C1233 C 0.56438 0.87113 0.77729
 C1234 C 0.55032 0.85879 0.78790
 H1235 H 0.55626 0.85863 0.73295
 H1236 H 0.55563 0.86236 0.68849
 H1237 H 0.57874 0.89399 0.66766
 H1238 H 0.60262 0.92209 0.69115
 H1239 H 0.63294 0.95056 0.77268
 H1240 H 0.63454 0.94597 0.81705
 H1241 H 0.61162 0.91418 0.83785
 H1242 H 0.58691 0.88682 0.81444
 C1243 C 0.43373 0.87707 0.25512
 C1244 C 0.44426 0.89144 0.27357
 C1245 C 0.43146 0.91049 0.28483
 C1246 C 0.40822 0.91503 0.27762
 C1247 C 0.39734 0.89991 0.26005
 C1248 C 0.41015 0.88088 0.24876
 C1249 C 0.39901 0.86623 0.23100
 C1250 C 0.37586 0.87023 0.22459
 C1251 C 0.36334 0.88884 0.23563
 C1252 C 0.37388 0.90357 0.25316
 C1253 C 0.44245 0.92484 0.30295
 C1254 C 0.46544 0.92049 0.30977
 C1255 C 0.47795 0.90187 0.29878
 C1256 C 0.46757 0.88746 0.28087
 C1257 C 0.39610 0.93627 0.28689
 C1258 C 0.38635 0.95445 0.29365
 C1259 C 0.44766 0.85956 0.24167
 C1260 C 0.45990 0.84588 0.23022
 H1261 H 0.40803 0.85150 0.22197
 H1262 H 0.36759 0.85884 0.21099
 H1263 H 0.34536 0.89188 0.23059
 H1264 H 0.36341 0.91777 0.26129
 H1265 H 0.43340 0.93949 0.31207
 H1266 H 0.47357 0.93164 0.32368
 H1267 H 0.49579 0.89855 0.30416
 H1268 H 0.47800 0.87314 0.27291
 C1269 C 0.56827 0.11469 0.25168
 C1270 C 0.59281 0.11580 0.25313
 C1271 C 0.60526 0.09744 0.26594
 C1272 C 0.59308 0.07810 0.27720
 C1273 C 0.56847 0.07764 0.27678
 C1274 C 0.55602 0.09595 0.26393
 C1275 C 0.53142 0.09481 0.26334
 C1276 C 0.51951 0.07612 0.27510
 C1277 C 0.53169 0.05832 0.28781
 C1278 C 0.55589 0.05896 0.28869
 C1279 C 0.62982 0.09873 0.26688
 C1280 C 0.64174 0.11767 0.25553
 C1281 C 0.62956 0.13563 0.24301
 C1282 C 0.60537 0.13479 0.24174
 C1283 C 0.60578 0.05762 0.28727
 C1284 C 0.61606 0.03990 0.29445
 C1285 C 0.55557 0.13202 0.23673
 C1286 C 0.54425 0.14560 0.22415
 H1287 H 0.52114 0.10831 0.25381
 H1288 H 0.50072 0.07542 0.27431
 H1289 H 0.52234 0.04389 0.29700
 H1290 H 0.56460 0.04473 0.29884
 H1291 H 0.64002 0.08522 0.27648
 H1292 H 0.66053 0.11842 0.25646
 H1293 H 0.63891 0.15031 0.23422
 H1294 H 0.59664 0.14918 0.23183
 C1295 C 0.42616 0.12312 0.74195
 C1296 C 0.43683 0.11041 0.72240
 C1297 C 0.42485 0.09101 0.71078
 C1298 C 0.40228 0.08451 0.71872
 C1299 C 0.39110 0.09815 0.73729
 C1300 C 0.40310 0.11750 0.74896
 C1301 C 0.39175 0.13061 0.76777
 C1302 C 0.36913 0.12483 0.77478
 C1303 C 0.35736 0.10594 0.76333
 C1304 C 0.36815 0.09266 0.74481
 C1305 C 0.43600 0.07828 0.69157
 C1306 C 0.45831 0.08465 0.68395
 C1307 C 0.46998 0.10369 0.69524
 C1308 C 0.45949 0.11642 0.71432
 C1309 C 0.39126 0.06278 0.70921
 C1310 C 0.38228 0.04421 0.70239
 C1311 C 0.43953 0.14061 0.75595
 C1312 C 0.45137 0.15420 0.76793
 H1313 H 0.40018 0.14551 0.77713
 H1314 H 0.36068 0.13508 0.78916
 H1315 H 0.33978 0.10154 0.76883
 H1316 H 0.35827 0.07818 0.73640
 H1317 H 0.42756 0.06341 0.68218
 H1318 H 0.46657 0.07476 0.66920
 H1319 H 0.48731 0.10856 0.68926
 H1320 H 0.46929 0.13106 0.72256
 C1321 C 0.57325 0.74022 0.12626
 C1322 C 0.59635 0.74704 0.12060
 C1323 C 0.60844 0.73510 0.10137
 C1324 C 0.59733 0.71642 0.08793
 C1325 C 0.57476 0.70861 0.09459
 C1326 C 0.56270 0.72051 0.11388
 C1327 C 0.54005 0.71255 0.12007
 C1328 C 0.52965 0.69335 0.10760
 C1329 C 0.54138 0.68182 0.08863
 C1330 C 0.56369 0.68930 0.08211
 C1331 C 0.63139 0.74249 0.09576
 C1332 C 0.64211 0.76111 0.10884
 C1333 C 0.63028 0.77278 0.12766
 C1334 C 0.60764 0.76592 0.13353
 C1335 C 0.60833 0.70679 0.06607
 C1336 C 0.61726 0.70001 0.04731
 C1337 C 0.55968 0.75467 0.14327
 C1338 C 0.54771 0.76704 0.15637
 H1339 H 0.53022 0.72098 0.13467
 H1340 H 0.51233 0.68746 0.11261
 H1341 H 0.53317 0.66699 0.07893
 H1342 H 0.57219 0.67972 0.06731
 H1343 H 0.64132 0.73390 0.08133
 H1344 H 0.65969 0.76651 0.10434
 H1345 H 0.63869 0.78722 0.13777
 H1346 H 0.59915 0.77545 0.14837
 C1347 C 0.43440 0.25154 0.11610
 C1348 C 0.40993 0.25351 0.11800
 C1349 C 0.39719 0.26624 0.09971
 C1350 C 0.40901 0.27693 0.07968
 C1351 C 0.43358 0.27598 0.07843
 C1352 C 0.44632 0.26322 0.09668
 C1353 C 0.47087 0.26217 0.09480
 C1354 C 0.48246 0.27334 0.07542
 C1355 C 0.47000 0.28588 0.05762
 C1356 C 0.44584 0.28724 0.05901
 C1357 C 0.37270 0.26765 0.10177
 C1358 C 0.36114 0.25687 0.12140
 C1359 C 0.37361 0.24448 0.13932
 C1360 C 0.39774 0.24274 0.13772
 C1361 C 0.39594 0.28708 0.05933
 C1362 C 0.38553 0.29439 0.04163
 C1363 C 0.44730 0.23655 0.13326
 C1364 C 0.45878 0.22391 0.14666
 H1365 H 0.48136 0.25274 0.10826
 H1366 H 0.50120 0.27223 0.07419
 H1367 H 0.47909 0.29457 0.04263
 H1368 H 0.43692 0.29726 0.04476
 H1369 H 0.36228 0.27718 0.08832
 H1370 H 0.34240 0.25815 0.12272
 H1371 H 0.36455 0.23616 0.15454
 H1372 H 0.40672 0.23297 0.15211
 C1373 C 0.56483 0.25726 0.87447
 C1374 C 0.55370 0.27470 0.88949
 C1375 C 0.56636 0.28639 0.90850
 C1376 C 0.59006 0.28059 0.91235
 C1377 C 0.60150 0.26415 0.89647
 C1378 C 0.58883 0.25243 0.87748
 C1379 C 0.60054 0.23579 0.86207
 C1380 C 0.62412 0.23089 0.86530
 C1381 C 0.63651 0.24235 0.88386
 C1382 C 0.62541 0.25878 0.89934
 C1383 C 0.55478 0.30347 0.92352
 C1384 C 0.53137 0.30890 0.91984
 C1385 C 0.51898 0.29749 0.90125
 C1386 C 0.52993 0.28056 0.88621
 C1387 C 0.60213 0.28993 0.93376
 C1388 C 0.61190 0.29656 0.95213
 C1389 C 0.55118 0.24315 0.85718
 C1390 C 0.53915 0.23112 0.84377
 H1391 H 0.59163 0.22651 0.84733
 H1392 H 0.63282 0.21815 0.85332
 H1393 H 0.65482 0.23849 0.88629
 H1394 H 0.63579 0.26731 0.91347
 H1395 H 0.56372 0.31288 0.93816
 H1396 H 0.52279 0.32205 0.93148
 H1397 H 0.50079 0.30177 0.89846
 H1398 H 0.51959 0.27222 0.87194
 C1399 C 0.42366 0.76553 0.88714
 C1400 C 0.42427 0.73994 0.88931
 C1401 C 0.41049 0.72818 0.90738
 C1402 C 0.39623 0.74212 0.92314
 C1403 C 0.39449 0.76754 0.91991
 C1404 C 0.40825 0.77930 0.90182
 C1405 C 0.40649 0.80479 0.89915
 C1406 C 0.39155 0.81828 0.91394
 C1407 C 0.37813 0.80678 0.93165
 C1408 C 0.37952 0.78170 0.93470
 C1409 C 0.41166 0.70260 0.90950
 C1410 C 0.42600 0.68902 0.89416
 C1411 C 0.43947 0.70052 0.87648
 C1412 C 0.43870 0.72570 0.87402
 C1413 C 0.38507 0.73062 0.94396
 C1414 C 0.37697 0.72107 0.96189
 C1415 C 0.44014 0.77783 0.87129
 C1416 C 0.45440 0.78828 0.85904
 H1417 H 0.41652 0.81453 0.88556
 H1418 H 0.39038 0.83776 0.91162
 H1419 H 0.36655 0.81733 0.94310
 H1420 H 0.36867 0.77353 0.94865
 H1421 H 0.40142 0.69284 0.92291
 H1422 H 0.42666 0.66946 0.89600
 H1423 H 0.45057 0.68989 0.86460
 H1424 H 0.44941 0.73384 0.85994
 C1425 C 0.74900 0.87638 0.42999
 C1426 C 0.75417 0.88237 0.40538
 C1427 C 0.74149 0.90107 0.39338
 C1428 C 0.72377 0.91367 0.40613
 C1429 C 0.71754 0.90653 0.43016
 C1430 C 0.73016 0.88775 0.44211
 C1431 C 0.72380 0.88108 0.46626
 C1432 C 0.70543 0.89257 0.47819
 C1433 C 0.69320 0.91105 0.46655
 C1434 C 0.69913 0.91805 0.44281
 C1435 C 0.74719 0.90703 0.36887
 C1436 C 0.76488 0.89480 0.35656
 C1437 C 0.77730 0.87652 0.36832
 C1438 C 0.77211 0.87033 0.39248
 C1439 C 0.71340 0.93516 0.39531
 C1440 C 0.70585 0.95360 0.38647
 C1441 C 0.76440 0.86049 0.44367
 C1442 C 0.77752 0.84865 0.45607
 H1443 H 0.73283 0.86683 0.47608
 H1444 H 0.70076 0.88720 0.49664
 H1445 H 0.67902 0.92000 0.47595
 H1446 H 0.68905 0.93244 0.43444
 H1447 H 0.73796 0.92106 0.35895
 H1448 H 0.76897 0.89953 0.33779
 H1449 H 0.79103 0.86707 0.35868
 H1450 H 0.78216 0.85593 0.40087
 C1451 C 0.24813 0.87765 0.56801
 C1452 C 0.26492 0.89186 0.55556
 C1453 C 0.27710 0.91043 0.56829
 C1454 C 0.27243 0.91468 0.59339
 C1455 C 0.25657 0.89962 0.60615
 C1456 C 0.24436 0.88106 0.59341
 C1457 C 0.22834 0.86648 0.60646
 C1458 C 0.22452 0.87007 0.63141
 C1459 C 0.23647 0.88820 0.64388
 C1460 C 0.25231 0.90288 0.63147
 C1461 C 0.29354 0.92464 0.55537
 C1462 C 0.29787 0.92058 0.53058
 C1463 C 0.28598 0.90242 0.51813
 C1464 C 0.26967 0.88818 0.53037
 C1465 C 0.28246 0.93568 0.60551
 C1466 C 0.28983 0.95379 0.61519
 C1467 C 0.23376 0.86076 0.55427
 C1468 C 0.22167 0.84769 0.54195
 H1469 H 0.21870 0.85211 0.59755
 H1470 H 0.21224 0.85872 0.64114
 H1471 H 0.23346 0.89090 0.66327
 H1472 H 0.26125 0.91669 0.64195
 H1473 H 0.30328 0.93892 0.56430
 H1474 H 0.31053 0.93158 0.52099
 H1475 H 0.28942 0.89933 0.49887
 H1476 H 0.26092 0.87423 0.51991
 C1477 C 0.25112 0.11767 0.42696
 C1478 C 0.26634 0.10213 0.44006
 C1479 C 0.27805 0.08303 0.42765
 C1480 C 0.27450 0.07961 0.40221
 C1481 C 0.26015 0.09585 0.38891
 C1482 C 0.24839 0.11493 0.40134
 C1483 C 0.23389 0.13073 0.38773
 C1484 C 0.23110 0.12781 0.36253
 C1485 C 0.24261 0.10919 0.35037
 C1486 C 0.25697 0.09332 0.36332
 C1487 C 0.29291 0.06752 0.44120
 C1488 C 0.29615 0.07079 0.46629
 C1489 C 0.28473 0.08948 0.47844
 C1490 C 0.26997 0.10501 0.46557
 C1491 C 0.28433 0.05848 0.39012
 C1492 C 0.29170 0.04041 0.38038
 C1493 C 0.23737 0.13547 0.44021
 C1494 C 0.22588 0.14935 0.45224
 H1495 H 0.22464 0.14552 0.39640
 H1496 H 0.21996 0.14008 0.35239
 H1497 H 0.24039 0.10701 0.33079
 H1498 H 0.26562 0.07915 0.35305
 H1499 H 0.30224 0.05277 0.43254
 H1500 H 0.30759 0.05876 0.47636
 H1501 H 0.28730 0.09196 0.49793
 H1502 H 0.26153 0.11931 0.47583
 C1503 C 0.76129 0.12252 0.58320
 C1504 C 0.73929 0.11458 0.57480
 C1505 C 0.72691 0.09663 0.58818
 C1506 C 0.73665 0.08676 0.60986
 C1507 C 0.75788 0.09592 0.61913
 C1508 C 0.77026 0.11389 0.60574
 C1509 C 0.79167 0.12247 0.61509
 C1510 C 0.80058 0.11360 0.63711
 C1511 C 0.78847 0.09603 0.65022
 C1512 C 0.76736 0.08719 0.64139
 C1513 C 0.70515 0.08859 0.57918
 C1514 C 0.69587 0.09807 0.55758
 C1515 C 0.70798 0.11564 0.54450
 C1516 C 0.72947 0.12383 0.55290
 C1517 C 0.72587 0.06577 0.62119
 C1518 C 0.71701 0.04763 0.62925
 C1519 C 0.77562 0.13745 0.56737
 C1520 C 0.78763 0.14851 0.55316
 H1521 H 0.80165 0.13619 0.60555
 H1522 H 0.81696 0.12041 0.64405
 H1523 H 0.79546 0.08920 0.66732
 H1524 H 0.75850 0.07358 0.65223
 H1525 H 0.69504 0.07502 0.58877
 H1526 H 0.67920 0.09174 0.55097
 H1527 H 0.70071 0.12295 0.52774
 H1528 H 0.73822 0.13757 0.54212
 C1529 C 0.87481 0.56854 0.25560
 C1530 C 0.88012 0.59257 0.24834
 C1531 C 0.89866 0.60523 0.25988
 C1532 C 0.91178 0.59372 0.27854
 C1533 C 0.90558 0.57023 0.28679
 C1534 C 0.88700 0.55760 0.27530
 C1535 C 0.88127 0.53401 0.28366
 C1536 C 0.89347 0.52326 0.30290
 C1537 C 0.91171 0.53558 0.31406
 C1538 C 0.91779 0.55879 0.30615
 C1539 C 0.90385 0.62914 0.25212
 C1540 C 0.89106 0.64025 0.23352
 C1541 C 0.87295 0.62785 0.22221
 C1542 C 0.86749 0.60426 0.22944
 C1543 C 0.93271 0.60524 0.28778
 C1544 C 0.95062 0.61456 0.29433
 C1545 C 0.85821 0.55433 0.24163
 C1546 C 0.84544 0.54164 0.22973
 H1547 H 0.86725 0.52368 0.27553
 H1548 H 0.88883 0.50523 0.30910
 H1549 H 0.92118 0.52711 0.32894
 H1550 H 0.93205 0.56771 0.31545
 H1551 H 0.91773 0.63954 0.26042
 H1552 H 0.89521 0.65859 0.22786
 H1553 H 0.86307 0.63656 0.20778
 H1554 H 0.85321 0.59535 0.22017
 C1555 C 0.88485 0.43081 0.74595
 C1556 C 0.88328 0.40587 0.74002
 C1557 C 0.90214 0.39414 0.72803
 C1558 C 0.92240 0.40747 0.72204
 C1559 C 0.92358 0.43264 0.72711
 C1560 C 0.90477 0.44435 0.73914
 C1561 C 0.90654 0.46947 0.74437
 C1562 C 0.92633 0.48259 0.73798
 C1563 C 0.94466 0.47117 0.72610
 C1564 C 0.94341 0.44649 0.72070
 C1565 C 0.90032 0.36912 0.72254
 C1566 C 0.88040 0.35606 0.72864
 C1567 C 0.86195 0.36754 0.74033
 C1568 C 0.86329 0.39216 0.74603
 C1569 C 0.94273 0.39511 0.71244
 C1570 C 0.96038 0.38542 0.70565
 C1571 C 0.86652 0.44260 0.75981
 C1572 C 0.85233 0.45371 0.77154
 H1573 H 0.89269 0.47926 0.75343
 H1574 H 0.92741 0.50176 0.74220
 H1575 H 0.95995 0.48148 0.72105
 H1576 H 0.95813 0.43843 0.71141
 H1577 H 0.91421 0.35945 0.71339
 H1578 H 0.87926 0.33694 0.72426
 H1579 H 0.84651 0.35731 0.74502
 H1580 H 0.84852 0.40033 0.75511
 C1581 C 0.11309 0.57570 0.76127
 C1582 C 0.11148 0.60128 0.76292
 C1583 C 0.09251 0.61363 0.75173
 C1584 C 0.07529 0.60029 0.73899
 C1585 C 0.07716 0.57474 0.73693
 C1586 C 0.09614 0.56241 0.74806
 C1587 C 0.09762 0.53683 0.74574
 C1588 C 0.08086 0.52384 0.73281
 C1589 C 0.06224 0.53588 0.72204
 C1590 C 0.06032 0.56102 0.72401
 C1591 C 0.09119 0.63920 0.75369
 C1592 C 0.10815 0.65221 0.76635
 C1593 C 0.12669 0.64013 0.77730
 C1594 C 0.12842 0.61495 0.77566
 C1595 C 0.05538 0.61261 0.72831
 C1596 C 0.03840 0.62182 0.71927
 C1597 C 0.13156 0.56273 0.77386
 C1598 C 0.14597 0.55066 0.78431
 H1599 H 0.11176 0.52660 0.75379
 H1600 H 0.08234 0.50433 0.73111
 H1601 H 0.04922 0.52571 0.71205
 H1602 H 0.04554 0.56955 0.71524
 H1603 H 0.07710 0.64937 0.74546
 H1604 H 0.10689 0.67177 0.76768
 H1605 H 0.13981 0.65033 0.78710
 H1606 H 0.14317 0.60633 0.78440
 C1607 C 0.10474 0.42596 0.23071
 C1608 C 0.10888 0.40158 0.23770
 C1609 C 0.09109 0.38807 0.24958
 C1610 C 0.06930 0.39903 0.25432
 C1611 C 0.06515 0.42341 0.24730
 C1612 C 0.08293 0.43693 0.23549
 C1613 C 0.07838 0.46132 0.22873
 C1614 C 0.05689 0.47201 0.23346
 C1615 C 0.03951 0.45879 0.24503
 C1616 C 0.04348 0.43478 0.25189
 C1617 C 0.09562 0.36378 0.25652
 C1618 C 0.11714 0.35311 0.25185
 C1619 C 0.13452 0.36630 0.24018
 C1620 C 0.13053 0.39028 0.23313
 C1621 C 0.05111 0.38557 0.26671
 C1622 C 0.03529 0.37566 0.27713
 C1623 C 0.12272 0.44000 0.21863
 C1624 C 0.13666 0.45287 0.20852
 H1625 H 0.09134 0.47243 0.21974
 H1626 H 0.05375 0.49067 0.22818
 H1627 H 0.02286 0.46718 0.24873
 H1628 H 0.02937 0.42527 0.26081
 H1629 H 0.08262 0.35281 0.26563
 H1630 H 0.12034 0.33451 0.25731
 H1631 H 0.15120 0.35793 0.23658
 H1632 H 0.14456 0.39984 0.22411
   
