data_POSCAR
  _audit_creation_date              2014-09-24
  _audit_creation_method            'ToBaCCo'
  _symmetry_space_group_name_H-M    'P1'
  _symmetry_Int_Tables_number       1
  _symmetry_cell_setting            triclinic
  loop_
  _symmetry_equiv_pos_as_xyz
 x,y,z
_cell_length_a 55.4336
_cell_length_b 55.4088
_cell_length_c 55.4264
_cell_angle_alpha 89.970200
_cell_angle_beta 89.965500
_cell_angle_gamma 90.033900
loop_
  _atom_site_label
  _atom_site_type_symbol
  _atom_site_fract_x
  _atom_site_fract_y
  _atom_site_fract_z
C1 C 0.36340 0.29099 0.02130
 C2 C 0.37212 0.28227 -0.00065
 C3 C 0.36331 0.29095 -0.02261
 C4 C 0.34513 0.30886 -0.02283
 C5 C 0.33608 0.31783 -0.00061
 C6 C 0.34525 0.30885 0.02158
 C7 C 0.33612 0.31805 0.04337
 C8 C 0.31836 0.33582 0.04343
 C9 C 0.30910 0.34504 0.02169
 C10 C 0.31799 0.33595 -0.00055
 C11 C 0.33585 0.31811 -0.04458
 C12 C 0.31811 0.33589 -0.04452
 C13 C 0.30896 0.34512 -0.02272
 C14 C 0.29110 0.36335 -0.02237
 C15 C 0.28250 0.37206 -0.00034
 C16 C 0.29127 0.36321 0.02154
 H17 H 0.34267 0.31158 0.06060
 H18 H 0.31196 0.34232 0.06070
 H19 H 0.34229 0.31167 -0.06186
 H20 H 0.31163 0.34241 -0.06176
 H21 H 0.38620 0.26863 -0.00059
 H22 H 0.26888 0.38616 -0.00017
 C23 C 0.63727 0.70874 -0.02185
 C24 C 0.62840 0.71737 0.00008
 C25 C 0.63710 0.70864 0.02203
 C26 C 0.65530 0.69081 0.02230
 C27 C 0.66449 0.68190 0.00010
 C28 C 0.65544 0.69090 -0.02210
 C29 C 0.66470 0.68176 -0.04387
 C30 C 0.68247 0.66400 -0.04387
 C31 C 0.69165 0.65472 -0.02209
 C32 C 0.68261 0.66381 0.00011
 C33 C 0.66443 0.68158 0.04408
 C34 C 0.68222 0.66384 0.04409
 C35 C 0.69151 0.65469 0.02232
 C36 C 0.70937 0.63654 0.02212
 C37 C 0.71815 0.62776 0.00021
 C38 C 0.70954 0.63652 -0.02179
 H39 H 0.65822 0.68825 -0.06111
 H40 H 0.68895 0.65754 -0.06113
 H41 H 0.65785 0.68800 0.06131
 H42 H 0.68863 0.65730 0.06135
 H43 H 0.61430 0.73098 0.00006
 H44 H 0.73179 0.61369 0.00035
 C45 C 0.70875 0.36320 0.97830
 C46 C 0.71744 0.37186 1.00028
 C47 C 0.70873 0.36299 1.02219
 C48 C 0.69085 0.34482 1.02236
 C49 C 0.68187 0.33583 1.00013
 C50 C 0.69085 0.34505 0.97797
 C51 C 0.68162 0.33601 0.95615
 C52 C 0.66380 0.31827 0.95607
 C53 C 0.65458 0.30894 0.97780
 C54 C 0.66373 0.31774 1.00005
 C55 C 0.68166 0.33550 1.04409
 C56 C 0.66387 0.31774 1.04403
 C57 C 0.65461 0.30864 1.02221
 C58 C 0.63638 0.29076 1.02185
 C59 C 0.62758 0.28226 0.99982
 C60 C 0.63636 0.29113 0.97794
 H61 H 0.68809 0.34262 0.93894
 H62 H 0.65726 0.31194 0.93879
 H63 H 0.68814 0.34192 1.06136
 H64 H 0.65738 0.31120 1.06126
 H65 H 0.73109 0.38594 1.00034
 H66 H 0.61346 0.26865 0.99965
 C67 C 0.29144 0.63643 1.02281
 C68 C 0.28273 0.62769 1.00083
 C69 C 0.29140 0.63653 0.97890
 C70 C 0.30926 0.65470 0.97864
 C71 C 0.31825 0.66382 1.00082
 C72 C 0.30931 0.65468 1.02305
 C73 C 0.31855 0.66393 1.04479
 C74 C 0.33629 0.68173 1.04474
 C75 C 0.34549 0.69096 1.02294
 C76 C 0.33635 0.68195 1.00077
 C77 C 0.31844 0.66390 0.95684
 C78 C 0.33622 0.68167 0.95679
 C79 C 0.34544 0.69089 0.97853
 C80 C 0.36362 0.70876 0.97869
 C81 C 0.37242 0.71752 1.00058
 C82 C 0.36368 0.70889 1.02260
 H83 H 0.31214 0.65743 1.06207
 H84 H 0.34281 0.68820 1.06199
 H85 H 0.31197 0.65738 0.93961
 H86 H 0.34272 0.68812 0.93952
 H87 H 0.26910 0.61359 1.00075
 H88 H 0.38651 0.73118 1.00043
 C89 C 0.02119 0.29050 0.36269
 C90 C -0.00075 0.28176 0.37145
 C91 C -0.02271 0.29049 0.36272
 C92 C -0.02293 0.30846 0.34457
 C93 C -0.00070 0.31746 0.33550
 C94 C 0.02147 0.30843 0.34459
 C95 C 0.04327 0.31766 0.33547
 C96 C 0.04335 0.33552 0.31778
 C97 C 0.02161 0.34479 0.30859
 C98 C -0.00063 0.33566 0.31747
 C99 C -0.04467 0.31776 0.33535
 C100 C -0.04460 0.33561 0.31766
 C101 C -0.02279 0.34486 0.30850
 C102 C -0.02243 0.36316 0.29070
 C103 C -0.00041 0.37194 0.28212
 C104 C 0.02147 0.36307 0.29083
 H105 H 0.06050 0.31115 0.34197
 H106 H 0.06062 0.34205 0.31139
 H107 H -0.06195 0.31130 0.34180
 H108 H -0.06183 0.34216 0.31122
 H109 H -0.00068 0.26807 0.38550
 H110 H -0.00024 0.38611 0.26855
 C111 C 0.02164 0.63662 0.70886
 C112 C -0.00027 0.62786 0.71767
 C113 C -0.02226 0.63659 0.70902
 C114 C -0.02257 0.65472 0.69104
 C115 C -0.00038 0.66381 0.68197
 C116 C 0.02184 0.65473 0.69092
 C117 C 0.04359 0.66389 0.68163
 C118 C 0.04358 0.68161 0.66379
 C119 C 0.02180 0.69078 0.65460
 C120 C -0.00040 0.68186 0.66378
 C121 C -0.04435 0.66392 0.68182
 C122 C -0.04437 0.68162 0.66397
 C123 C -0.02261 0.69081 0.65465
 C124 C -0.02234 0.70864 0.63636
 C125 C -0.00035 0.71727 0.62756
 C126 C 0.02157 0.70859 0.63637
 H127 H 0.06085 0.65740 0.68807
 H128 H 0.06082 0.68804 0.65722
 H129 H -0.06160 0.65745 0.68833
 H130 H -0.06163 0.68804 0.65747
 H131 H -0.00014 0.61383 0.73137
 H132 H -0.00023 0.73087 0.61342
 C133 C 1.02250 0.63724 0.29125
 C134 C 1.00056 0.62839 0.28264
 C135 C 0.97862 0.63717 0.29134
 C136 C 0.97838 0.65542 0.30911
 C137 C 1.00059 0.66460 0.31801
 C138 C 1.02277 0.65547 0.30904
 C139 C 1.04455 0.66471 0.31816
 C140 C 1.04458 0.68253 0.33588
 C141 C 1.02281 0.69177 0.34512
 C142 C 1.00061 0.68276 0.33605
 C143 C 0.95662 0.66462 0.31831
 C144 C 0.95663 0.68246 0.33601
 C145 C 0.97841 0.69172 0.34514
 C146 C 0.97864 0.70962 0.36326
 C147 C 1.00055 0.71838 0.37202
 C148 C 1.02254 0.70970 0.36329
 H149 H 1.06178 0.65818 0.31169
 H150 H 1.06185 0.68899 0.34233
 H151 H 0.93937 0.65806 0.31190
 H152 H 0.93938 0.68892 0.34252
 H153 H 1.00055 0.61425 0.26908
 H154 H 1.00044 0.73204 0.38608
 C155 C 0.97806 0.36347 0.70816
 C156 C 1.00001 0.37214 0.71693
 C157 C 1.02194 0.36333 0.70826
 C158 C 1.02219 0.34524 0.69032
 C159 C 0.99999 0.33622 0.68127
 C160 C 0.97780 0.34536 0.69023
 C161 C 0.95602 0.33626 0.68096
 C162 C 0.95601 0.31855 0.66313
 C163 C 0.97777 0.30932 0.65393
 C164 C 0.99999 0.31819 0.66309
 C165 C 1.04395 0.33603 0.68113
 C166 C 1.04396 0.31835 0.66328
 C167 C 1.02219 0.30920 0.65396
 C168 C 1.02189 0.29138 0.63569
 C169 C 0.99989 0.28280 0.62689
 C170 C 0.97798 0.29152 0.63571
 H171 H 0.93879 0.34280 0.68741
 H172 H 0.93876 0.31216 0.65657
 H173 H 1.06120 0.34249 0.68765
 H174 H 1.06122 0.31189 0.65679
 H175 H 1.00002 0.38616 0.73061
 H176 H 0.99976 0.26920 0.61276
 C177 C 0.36358 -0.02256 0.29119
 C178 C 0.37235 -0.00057 0.28249
 C179 C 0.36358 0.02136 0.29120
 C180 C 0.34544 0.02162 0.30909
 C181 C 0.33631 -0.00058 0.31809
 C182 C 0.34539 -0.02281 0.30911
 C183 C 0.33613 -0.04457 0.31838
 C184 C 0.31838 -0.04453 0.33617
 C185 C 0.30920 -0.02273 0.34539
 C186 C 0.31822 -0.00054 0.33623
 C187 C 0.33630 0.04341 0.31829
 C188 C 0.31856 0.04345 0.33609
 C189 C 0.30932 0.02170 0.34533
 C190 C 0.29148 0.02152 0.36352
 C191 C 0.28272 -0.00039 0.37235
 C192 C 0.29132 -0.02240 0.36361
 H193 H 0.34259 -0.06185 0.31194
 H194 H 0.31190 -0.06179 0.34269
 H195 H 0.34284 0.06065 0.31180
 H196 H 0.31214 0.06072 0.34260
 H197 H 0.38641 -0.00047 0.26882
 H198 H 0.26909 -0.00025 0.38645
 C199 C 0.63624 0.02205 0.70911
 C200 C 0.62745 0.00013 0.71787
 C201 C 0.63628 -0.02187 0.70930
 C202 C 0.65457 -0.02213 0.69148
 C203 C 0.66366 0.00009 0.68246
 C204 C 0.65447 0.02229 0.69131
 C205 C 0.66363 0.04408 0.68205
 C206 C 0.68144 0.04410 0.66432
 C207 C 0.69073 0.02233 0.65522
 C208 C 0.68182 0.00011 0.66441
 C209 C 0.66391 -0.04391 0.68235
 C210 C 0.68175 -0.04387 0.66465
 C211 C 0.69090 -0.02208 0.65540
 C212 C 0.70880 -0.02181 0.63728
 C213 C 0.71743 0.00015 0.62841
 C214 C 0.70863 0.02209 0.63708
 H215 H 0.65704 0.06133 0.68843
 H216 H 0.68786 0.06135 0.65774
 H217 H 0.65745 -0.06118 0.68883
 H218 H 0.68830 -0.06111 0.65821
 H219 H 0.61331 0.00023 0.73146
 H220 H 0.73108 0.00015 0.61435
 C221 C 0.36318 0.97840 0.70930
 C222 C 0.37194 1.00035 0.71801
 C223 C 0.36313 1.02233 0.70936
 C224 C 0.34491 1.02255 0.69150
 C225 C 0.33584 1.00031 0.68254
 C226 C 0.34501 0.97813 0.69147
 C227 C 0.33588 0.95632 0.68226
 C228 C 0.31812 0.95627 0.66449
 C229 C 0.30885 0.97802 0.65532
 C230 C 0.31773 1.00025 0.66445
 C231 C 0.33559 1.04431 0.68229
 C232 C 0.31781 1.04424 0.66455
 C233 C 0.30869 1.02242 0.65536
 C234 C 0.29083 1.02211 0.63720
 C235 C 0.28223 1.00014 0.62840
 C236 C 0.29100 0.97822 0.63715
 H237 H 0.34245 0.93908 0.68870
 H238 H 0.31172 0.93900 0.65796
 H239 H 0.34203 1.06160 0.68872
 H240 H 0.31128 1.06146 0.65804
 H241 H 0.38604 1.00027 0.73162
 H242 H 0.26861 1.00011 0.61432
 C243 C 0.63627 0.97829 0.29148
 C244 C 0.62752 1.00020 0.28269
 C245 C 0.63627 1.02221 0.29132
 C246 C 0.65443 1.02251 0.30925
 C247 C 0.66349 1.00031 0.31831
 C248 C 0.65438 0.97809 0.30938
 C249 C 0.66351 0.95631 0.31866
 C250 C 0.68123 0.95632 0.33647
 C251 C 0.69045 0.97810 0.34563
 C252 C 0.68156 1.00031 0.33645
 C253 C 0.66367 1.04430 0.31844
 C254 C 0.68140 1.04430 0.33623
 C255 C 0.69057 1.02252 0.34553
 C256 C 0.70842 1.02225 0.36376
 C257 C 0.71702 1.00025 0.37258
 C258 C 0.70827 0.97832 0.36383
 H259 H 0.65698 0.93905 0.31224
 H260 H 0.68763 0.93907 0.34304
 H261 H 0.65722 1.06156 0.31194
 H262 H 0.68786 1.06157 0.34270
 H263 H 0.61348 1.00007 0.26901
 H264 H 0.73064 1.00015 0.38668
 O265 O 0.84967 0.81649 0.47711
 O266 O 0.81660 0.84942 0.52407
 O267 O 0.84988 0.81625 0.52379
 O268 O 0.81644 0.84970 0.47740
 O269 O 0.78814 0.82155 0.47725
 O270 O 0.82182 0.78787 0.52392
 O271 O 0.78829 0.82127 0.52420
 O272 O 0.82161 0.78810 0.47696
 Cu273 Cu 0.83597 0.83579 0.50060
 Cu274 Cu 0.80210 0.80182 0.50058
 C275 C 0.84142 0.79665 0.46927
 C276 C 0.79677 0.84111 0.53190
 C277 C 0.84169 0.79633 0.53153
 C278 C 0.79656 0.84146 0.46965
 O279 O 0.18310 0.15056 0.52355
 O280 O 0.15003 0.18342 0.47656
 O281 O 0.18329 0.15025 0.47688
 O282 O 0.14979 0.18368 0.52323
 O283 O 0.17782 0.21210 0.52329
 O284 O 0.21156 0.17842 0.47666
 O285 O 0.17806 0.21184 0.47634
 O286 O 0.21138 0.17873 0.52361
 Cu287 Cu 0.16373 0.16414 0.50006
 Cu288 Cu 0.19757 0.19815 0.49997
 C289 C 0.20291 0.15890 0.53135
 C290 C 0.15826 0.20326 0.46867
 C291 C 0.20316 0.15849 0.46910
 C292 C 0.15795 0.20362 0.53093
 O293 O 0.18377 0.84977 0.47625
 O294 O 0.15046 0.81649 0.52287
 O295 O 0.18371 0.84971 0.52293
 O296 O 0.15047 0.81659 0.47620
 O297 O 0.17851 0.78821 0.47603
 O298 O 0.21200 0.82158 0.52304
 O299 O 0.17851 0.78811 0.52298
 O300 O 0.21206 0.82164 0.47608
 Cu301 Cu 0.16429 0.83597 0.49956
 Cu302 Cu 0.19813 0.80202 0.49952
 C303 C 0.20362 0.84152 0.46845
 C304 C 0.15867 0.79660 0.53064
 C305 C 0.20355 0.84143 0.53072
 C306 C 0.15867 0.79673 0.46839
 O307 O 0.81591 0.15040 0.47579
 O308 O 0.84917 0.18374 0.52234
 O309 O 0.81594 0.15050 0.52247
 O310 O 0.84919 0.18362 0.47567
 O311 O 0.82113 0.21197 0.47547
 O312 O 0.78763 0.17861 0.52255
 O313 O 0.82111 0.21209 0.52242
 O314 O 0.78761 0.17851 0.47559
 Cu315 Cu 0.83538 0.16424 0.49907
 Cu316 Cu 0.80150 0.19817 0.49900
 C317 C 0.79606 0.15863 0.46800
 C318 C 0.84095 0.20362 0.53009
 C319 C 0.79610 0.15877 0.53026
 C320 C 0.84098 0.20347 0.46783
 O321 O 0.47705 0.84959 0.81646
 O322 O 0.52388 0.81645 0.84947
 O323 O 0.52371 0.84977 0.81633
 O324 O 0.47722 0.81634 0.84966
 O325 O 0.47706 0.78804 0.82154
 O326 O 0.52384 0.82173 0.78794
 O327 O 0.52401 0.78816 0.82134
 O328 O 0.47690 0.82154 0.78809
 Cu329 Cu 0.50047 0.83586 0.83581
 Cu330 Cu 0.50045 0.80200 0.80185
 C331 C 0.46922 0.84136 0.79662
 C332 C 0.53169 0.79662 0.84117
 C333 C 0.53147 0.84160 0.79643
 C334 C 0.46944 0.79646 0.84143
 O335 O 0.52407 0.18297 0.14984
 O336 O 0.47728 0.14987 0.18309
 O337 O 0.47740 0.18302 0.14976
 O338 O 0.52395 0.14977 0.18315
 O339 O 0.52409 0.17793 0.21141
 O340 O 0.47726 0.21142 0.17779
 O341 O 0.47714 0.17803 0.21136
 O342 O 0.52421 0.21137 0.17786
 Cu343 Cu 0.50068 0.16358 0.16364
 Cu344 Cu 0.50068 0.19756 0.19746
 C345 C 0.53187 0.20286 0.15803
 C346 C 0.46947 0.15816 0.20292
 C347 C 0.46962 0.20292 0.15794
 C348 C 0.53171 0.15803 0.20301
 O349 O 0.47558 0.18405 0.84919
 O350 O 0.52233 0.15092 0.81603
 O351 O 0.52224 0.18414 0.84923
 O352 O 0.47567 0.15074 0.81605
 O353 O 0.47548 0.17880 0.78767
 O354 O 0.52234 0.21246 0.82110
 O355 O 0.52243 0.17900 0.78765
 O356 O 0.47539 0.21236 0.82105
 Cu357 Cu 0.49895 0.16464 0.83545
 Cu358 Cu 0.49890 0.19852 0.80149
 C359 C 0.46775 0.20389 0.84092
 C360 C 0.53012 0.15918 0.79616
 C361 C 0.53000 0.20401 0.84096
 C362 C 0.46787 0.15893 0.79618
 O363 O 0.47613 0.81642 0.15039
 O364 O 0.52285 0.84958 0.18360
 O365 O 0.52281 0.81639 0.15034
 O366 O 0.47618 0.84968 0.18360
 O367 O 0.47599 0.82156 0.21193
 O368 O 0.52289 0.78803 0.17843
 O369 O 0.52293 0.82146 0.21193
 O370 O 0.47594 0.78806 0.17848
 Cu371 Cu 0.49950 0.83584 0.16416
 Cu372 Cu 0.49943 0.80191 0.19806
 C373 C 0.46832 0.79655 0.15862
 C374 C 0.53062 0.84132 0.20346
 C375 C 0.53057 0.79651 0.15857
 C376 C 0.46838 0.84144 0.20347
 O377 O 0.81681 0.47719 0.84990
 O378 O 0.85001 0.52401 0.81678
 O379 O 0.81687 0.52388 0.85013
 O380 O 0.85000 0.47732 0.81661
 O381 O 0.82186 0.47732 0.78835
 O382 O 0.78849 0.52416 0.82211
 O383 O 0.82187 0.52429 0.78852
 O384 O 0.78843 0.47719 0.82188
 Cu385 Cu 0.83625 0.50059 0.83617
 Cu386 Cu 0.80229 0.50076 0.80236
 C387 C 0.79693 0.46944 0.84168
 C388 C 0.84174 0.53189 0.79696
 C389 C 0.79700 0.53171 0.84198
 C390 C 0.84172 0.46961 0.79674
 O391 O 0.18419 0.47671 0.15063
 O392 O 0.15115 0.52352 0.18380
 O393 O 0.18439 0.52340 0.15060
 O394 O 0.15088 0.47684 0.18379
 O395 O 0.17892 0.47656 0.21216
 O396 O 0.21268 0.52341 0.17872
 O397 O 0.17919 0.52353 0.21217
 O398 O 0.21247 0.47644 0.17876
 Cu399 Cu 0.16483 0.50013 0.16438
 Cu400 Cu 0.19868 0.49997 0.19833
 C401 C 0.20399 0.46883 0.15890
 C402 C 0.15940 0.53127 0.20367
 C403 C 0.20427 0.53111 0.15886
 C404 C 0.15904 0.46899 0.20366
 O405 O 0.84973 0.47627 0.18420
 O406 O 0.81659 0.52305 0.15109
 O407 O 0.84986 0.52296 0.18423
 O408 O 0.81651 0.47637 0.15100
 O409 O 0.78820 0.47622 0.17914
 O410 O 0.82180 0.52310 0.21261
 O411 O 0.78828 0.52318 0.17923
 O412 O 0.82167 0.47612 0.21258
 Cu413 Cu 0.83600 0.49967 0.16480
 Cu414 Cu 0.80212 0.49966 0.19876
 C415 C 0.84149 0.46846 0.20406
 C416 C 0.79675 0.53086 0.15937
 C417 C 0.84165 0.53075 0.20411
 C418 C 0.79665 0.46859 0.15926
 O419 O 0.18348 0.52310 0.85013
 O420 O 0.15042 0.47634 0.81687
 O421 O 0.18357 0.47641 0.85016
 O422 O 0.15027 0.52303 0.81690
 O423 O 0.17840 0.52327 0.78859
 O424 O 0.21194 0.47637 0.82210
 O425 O 0.17855 0.47631 0.78856
 O426 O 0.21185 0.52334 0.82206
 Cu427 Cu 0.16411 0.49971 0.83634
 Cu428 Cu 0.19806 0.49983 0.80246
 C429 C 0.20334 0.53096 0.84191
 C430 C 0.15871 0.46859 0.79701
 C431 C 0.20346 0.46868 0.84195
 C432 C 0.15851 0.53086 0.79704
 C433 C 0.25887 0.40264 0.11918
 C434 C 0.24574 0.38647 0.10044
 C435 C 0.26187 0.39704 0.08051
 C436 C 0.27520 0.41294 0.09887
 C437 C 0.24052 0.42280 0.11416
 C438 C 0.25666 0.43329 0.09419
 C439 C 0.22722 0.40689 0.09577
 C440 C 0.24351 0.41722 0.07561
 C441 C 0.27311 0.38373 0.06066
 C442 C 0.28172 0.37383 0.04334
 C443 C 0.22807 0.43814 0.13170
 C444 C 0.21731 0.45170 0.14484
 H445 H 0.26503 0.39683 0.13733
 H446 H 0.24140 0.36705 0.10278
 H447 H 0.29507 0.41526 0.09992
 H448 H 0.26103 0.45270 0.09179
 H449 H 0.20736 0.40456 0.09468
 H450 H 0.23730 0.42309 0.05749
 C451 C 0.74159 0.59683 0.11970
 C452 C 0.75470 0.61322 0.10110
 C453 C 0.73879 0.60264 0.08103
 C454 C 0.72547 0.58651 0.09925
 C455 C 0.76014 0.57686 0.11467
 C456 C 0.74422 0.56635 0.09457
 C457 C 0.77342 0.59299 0.09643
 C458 C 0.75735 0.58265 0.07613
 C459 C 0.72754 0.61596 0.06120
 C460 C 0.71893 0.62589 0.04389
 C461 C 0.77261 0.56152 0.13220
 C462 C 0.78339 0.54797 0.14533
 H463 H 0.73526 0.60247 0.13784
 H464 H 0.75886 0.63267 0.10355
 H465 H 0.70563 0.58401 0.10018
 H466 H 0.74004 0.54692 0.09205
 H467 H 0.79327 0.59550 0.09545
 H468 H 0.76373 0.57693 0.05802
 C469 C 0.76573 0.42478 0.91333
 C470 C 0.73837 0.42510 0.91868
 C471 C 0.73856 0.39739 0.91968
 C472 C 0.76579 0.39690 0.91456
 C473 C 0.76012 0.42331 0.88623
 C474 C 0.76036 0.39560 0.88715
 C475 C 0.73288 0.42383 0.89133
 C476 C 0.73287 0.39584 0.89259
 C477 C 0.72716 0.38397 0.93939
 C478 C 0.71842 0.37396 0.95661
 C479 C 0.77270 0.43871 0.86879
 C480 C 0.78354 0.45230 0.85571
 H481 H 0.77936 0.43683 0.92172
 H482 H 0.72922 0.43711 0.93184
 H483 H 0.77921 0.38569 0.92432
 H484 H 0.76954 0.38364 0.87397
 H485 H 0.71948 0.43506 0.88157
 H486 H 0.71921 0.38376 0.88432
 C487 C 0.25829 0.59717 0.88147
 C488 C 0.24527 0.61322 0.90040
 C489 C 0.26162 0.60267 0.92014
 C490 C 0.27484 0.58689 0.90158
 C491 C 0.24005 0.57691 0.88662
 C492 C 0.25641 0.56643 0.90638
 C493 C 0.22687 0.59270 0.90520
 C494 C 0.24338 0.58239 0.92516
 C495 C 0.27301 0.61599 0.93990
 C496 C 0.28174 0.62590 0.95716
 C497 C 0.22750 0.56159 0.86913
 C498 C 0.21668 0.54806 0.85600
 H499 H 0.26426 0.60307 0.86328
 H500 H 0.24085 0.63263 0.89817
 H501 H 0.29470 0.58466 0.90031
 H502 H 0.26087 0.54703 0.90868
 H503 H 0.20702 0.59494 0.90651
 H504 H 0.23735 0.57642 0.94332
 C505 C 0.11860 0.25519 0.40006
 C506 C 0.09771 0.24208 0.38677
 C507 C 0.07999 0.26097 0.39664
 C508 C 0.10051 0.27429 0.40967
 C509 C 0.11359 0.23966 0.42249
 C510 C 0.09584 0.25855 0.43230
 C511 C 0.09305 0.22639 0.40944
 C512 C 0.07511 0.24542 0.41908
 C513 C 0.06019 0.27222 0.38329
 C514 C 0.04291 0.28087 0.37335
 C515 C 0.13110 0.22724 0.43788
 C516 C 0.14422 0.21652 0.45148
 H517 H 0.13671 0.25905 0.39242
 H518 H 0.09825 0.23545 0.36788
 H519 H 0.10334 0.29413 0.40958
 H520 H 0.09525 0.26521 0.45118
 H521 H 0.09016 0.20656 0.40951
 H522 H 0.05703 0.24151 0.42679
 C523 C 0.09377 0.74391 0.56606
 C524 C 0.09852 0.72504 0.58610
 C525 C 0.08037 0.73825 0.60237
 C526 C 0.07540 0.75694 0.58250
 C527 C 0.11392 0.75979 0.57656
 C528 C 0.09576 0.77296 0.59283
 C529 C 0.11901 0.74111 0.59641
 C530 C 0.10049 0.75411 0.61294
 C531 C 0.06060 0.72689 0.61573
 C532 C 0.04332 0.71820 0.62568
 C533 C 0.13142 0.77235 0.56123
 C534 C 0.14456 0.78319 0.54771
 H535 H 0.09116 0.73984 0.54662
 H536 H 0.09943 0.70519 0.58350
 H537 H 0.05728 0.76334 0.57689
 H538 H 0.09480 0.79280 0.59545
 H539 H 0.13717 0.73475 0.60195
 H540 H 0.10303 0.75815 0.63239
 C541 C 0.88570 0.75831 0.39543
 C542 C 0.91268 0.76573 0.39486
 C543 C 0.91976 0.73903 0.39723
 C544 C 0.89312 0.73136 0.39755
 C545 C 0.88610 0.76025 0.42308
 C546 C 0.89317 0.73355 0.42546
 C547 C 0.91276 0.76783 0.42268
 C548 C 0.92007 0.74102 0.42487
 C549 C 0.93958 0.72781 0.38386
 C550 C 0.95688 0.71920 0.37392
 C551 C 0.86858 0.77266 0.43847
 C552 C 0.85545 0.78338 0.45208
 H553 H 0.87134 0.76556 0.38351
 H554 H 0.92091 0.77883 0.38213
 H555 H 0.88529 0.71622 0.38703
 H556 H 0.88495 0.72046 0.43821
 H557 H 0.92069 0.78295 0.43316
 H558 H 0.93440 0.73380 0.43685
 C559 C 0.90209 0.22756 0.59417
 C560 C 0.92392 0.24146 0.58371
 C561 C 0.91917 0.26196 0.60175
 C562 C 0.89758 0.24823 0.61246
 C563 C 0.88563 0.24044 0.57597
 C564 C 0.88077 0.26094 0.59399
 C565 C 0.90725 0.25419 0.56535
 C566 C 0.90272 0.27487 0.58356
 C567 C 0.93894 0.27329 0.61510
 C568 C 0.95622 0.28195 0.62504
 C569 C 0.86815 0.22789 0.56065
 C570 C 0.85502 0.21704 0.54714
 H571 H 0.90165 0.20798 0.59838
 H572 H 0.94185 0.23356 0.57959
 H573 H 0.89384 0.24594 0.63201
 H574 H 0.86280 0.26879 0.59804
 H575 H 0.91107 0.25651 0.54582
 H576 H 0.90320 0.29445 0.57935
 C577 C 0.40720 0.09534 0.22665
 C578 C 0.41750 0.07507 0.24281
 C579 C 0.39757 0.08012 0.26140
 C580 C 0.38703 0.10016 0.24540
 C581 C 0.42341 0.11359 0.23978
 C582 C 0.40350 0.11877 0.25836
 C583 C 0.43388 0.09352 0.25579
 C584 C 0.41377 0.09835 0.27457
 C585 C 0.38420 0.06037 0.27280
 C586 C 0.37425 0.04311 0.28153
 C587 C 0.43878 0.13105 0.22719
 C588 C 0.45234 0.14413 0.21633
 H589 H 0.40466 0.09428 0.20681
 H590 H 0.42314 0.05691 0.23651
 H591 H 0.36759 0.10266 0.24129
 H592 H 0.39792 0.13696 0.26461
 H593 H 0.45330 0.09095 0.25993
 H594 H 0.41630 0.09937 0.29441
 C595 C 0.57978 0.11249 0.73221
 C596 C 0.60713 0.10811 0.73637
 C597 C 0.60212 0.08091 0.73839
 C598 C 0.57506 0.08499 0.73403
 C599 C 0.57624 0.11454 0.75963
 C600 C 0.57133 0.08731 0.76157
 C601 C 0.60330 0.11050 0.76403
 C602 C 0.59854 0.08300 0.76579
 C603 C 0.61552 0.06110 0.72718
 C604 C 0.62551 0.04381 0.71861
 C605 C 0.56085 0.13204 0.77206
 C606 C 0.54726 0.14515 0.78282
 H607 H 0.57190 0.12483 0.71855
 H608 H 0.62204 0.11641 0.72586
 H609 H 0.56358 0.07429 0.72159
 H610 H 0.55645 0.07890 0.77204
 H611 H 0.61474 0.12121 0.77649
 H612 H 0.60639 0.07067 0.77949
 C613 C 0.40700 0.90425 0.77341
 C614 C 0.41727 0.92457 0.75726
 C615 C 0.39724 0.91960 0.73877
 C616 C 0.38673 0.89952 0.75476
 C617 C 0.42311 0.88603 0.76012
 C618 C 0.40309 0.88094 0.74163
 C619 C 0.43354 0.90614 0.74412
 C620 C 0.41333 0.90139 0.72544
 C621 C 0.38386 0.93939 0.72751
 C622 C 0.37389 0.95666 0.71888
 C623 C 0.43849 0.86853 0.77256
 C624 C 0.45207 0.85541 0.78332
 H625 H 0.40456 0.90525 0.79326
 H626 H 0.42299 0.94270 0.76358
 H627 H 0.36731 0.89703 0.75898
 H628 H 0.39745 0.86277 0.73537
 H629 H 0.45295 0.90870 0.73987
 H630 H 0.41577 0.90045 0.70558
 C631 C 0.59649 0.88081 0.25883
 C632 C 0.61294 0.89944 0.24584
 C633 C 0.60237 0.91947 0.26182
 C634 C 0.58619 0.90121 0.27502
 C635 C 0.57658 0.88595 0.24026
 C636 C 0.56608 0.90601 0.25625
 C637 C 0.59277 0.90423 0.22709
 C638 C 0.58244 0.92449 0.24324
 C639 C 0.61571 0.93924 0.27319
 C640 C 0.62563 0.95652 0.28187
 C641 C 0.56124 0.86848 0.22769
 C642 C 0.54771 0.85537 0.21685
 H643 H 0.60209 0.86263 0.26509
 H644 H 0.63238 0.89697 0.24171
 H645 H 0.58365 0.90019 0.29486
 H646 H 0.54665 0.90855 0.26041
 H647 H 0.59532 0.90530 0.20725
 H648 H 0.57677 0.94264 0.23692
 C649 C 0.40586 0.22729 0.90407
 C650 C 0.41631 0.24337 0.92431
 C651 C 0.39632 0.26195 0.91949
 C652 C 0.38563 0.24603 0.89948
 C653 C 0.42191 0.24055 0.88574
 C654 C 0.40194 0.25912 0.88080
 C655 C 0.43253 0.25648 0.90578
 C656 C 0.41236 0.27525 0.90119
 C657 C 0.38312 0.27323 0.93939
 C658 C 0.37333 0.28185 0.95678
 C659 C 0.43717 0.22805 0.86816
 C660 C 0.45067 0.21725 0.85500
 H661 H 0.40335 0.20744 0.90507
 H662 H 0.42211 0.23700 0.94239
 H663 H 0.36618 0.24189 0.89713
 H664 H 0.39622 0.26544 0.86268
 H665 H 0.45196 0.26066 0.90821
 H666 H 0.41487 0.29511 0.90023
 C667 C 0.58382 0.77104 0.91040
 C668 C 0.57726 0.74682 0.92258
 C669 C 0.60348 0.73846 0.91933
 C670 C 0.61024 0.76255 0.90737
 C671 C 0.57771 0.75992 0.88576
 C672 C 0.60394 0.75159 0.88239
 C673 C 0.57097 0.73583 0.89773
 C674 C 0.59742 0.72725 0.89471
 C675 C 0.61678 0.72711 0.93912
 C676 C 0.62667 0.71841 0.95640
 C677 C 0.56238 0.77244 0.86827
 C678 C 0.54882 0.78326 0.85518
 H679 H 0.57808 0.78917 0.91669
 H680 H 0.56641 0.74476 0.93930
 H681 H 0.62655 0.77341 0.91156
 H682 H 0.61471 0.75370 0.86564
 H683 H 0.55466 0.72497 0.89358
 H684 H 0.60320 0.70911 0.88851
 C685 C 0.43309 0.74384 0.09379
 C686 C 0.41302 0.72497 0.09852
 C687 C 0.39685 0.73816 0.08028
 C688 C 0.41674 0.75684 0.07534
 C689 C 0.42249 0.75974 0.11387
 C690 C 0.40631 0.77289 0.09562
 C691 C 0.40262 0.74107 0.11894
 C692 C 0.38618 0.75405 0.10033
 C693 C 0.38360 0.72677 0.06047
 C694 C 0.37376 0.71807 0.04315
 C695 C 0.43776 0.77232 0.13139
 C696 C 0.45125 0.78316 0.14453
 H697 H 0.45253 0.73977 0.09127
 H698 H 0.41562 0.70513 0.09949
 H699 H 0.42244 0.76322 0.05721
 H700 H 0.40370 0.79273 0.09460
 H701 H 0.39699 0.73474 0.13709
 H702 H 0.36672 0.75809 0.10278
 C703 C 0.56709 0.25591 0.09337
 C704 C 0.58742 0.27450 0.09806
 C705 C 0.60327 0.26131 0.07954
 C706 C 0.58312 0.24292 0.07462
 C707 C 0.57768 0.23968 0.11319
 C708 C 0.59354 0.22653 0.09464
 C709 C 0.59781 0.25806 0.11823
 C710 C 0.61393 0.24509 0.09933
 C711 C 0.61649 0.27274 0.05971
 C712 C 0.62632 0.28150 0.04239
 C713 C 0.56243 0.22708 0.13074
 C714 C 0.54894 0.21624 0.14391
 H715 H 0.54767 0.26024 0.09108
 H716 H 0.58507 0.29436 0.09925
 H717 H 0.57719 0.23680 0.05650
 H718 H 0.59590 0.20668 0.09341
 H719 H 0.60368 0.26413 0.13638
 H720 H 0.63336 0.24079 0.10154
 C721 C 0.22640 0.09624 0.59379
 C722 C 0.24240 0.07587 0.58345
 C723 C 0.26108 0.08087 0.60330
 C724 C 0.24525 0.10100 0.61388
 C725 C 0.23959 0.11440 0.57749
 C726 C 0.25827 0.11952 0.59732
 C727 C 0.25544 0.09423 0.56699
 C728 C 0.27431 0.09900 0.58701
 C729 C 0.27243 0.06109 0.61663
 C730 C 0.28114 0.04383 0.62655
 C731 C 0.22707 0.13186 0.56213
 C732 C 0.21627 0.14493 0.54854
 H733 H 0.20657 0.09529 0.59643
 H734 H 0.23598 0.05773 0.57787
 H735 H 0.24121 0.10355 0.63333
 H736 H 0.26464 0.13769 0.60283
 H737 H 0.25951 0.09161 0.54755
 H738 H 0.29414 0.09991 0.58439
 C739 C 0.73609 0.10054 0.43006
 C740 C 0.72585 0.10398 0.40426
 C741 C 0.73767 0.08005 0.39677
 C742 C 0.74770 0.07639 0.42234
 C743 C 0.75922 0.11375 0.42233
 C744 C 0.77096 0.08980 0.41479
 C745 C 0.74922 0.11753 0.39675
 C746 C 0.76080 0.09324 0.38901
 C747 C 0.72629 0.06019 0.38358
 C748 C 0.71759 0.04284 0.37378
 C749 C 0.77179 0.13132 0.43754
 C750 C 0.78264 0.14450 0.45099
 H751 H 0.72605 0.10373 0.44710
 H752 H 0.70716 0.10957 0.39976
 H753 H 0.74698 0.05927 0.43275
 H754 H 0.78963 0.08412 0.41926
 H755 H 0.74999 0.13468 0.38641
 H756 H 0.77082 0.09001 0.37197
 C757 C 0.74126 0.88068 0.59764
 C758 C 0.75426 0.89912 0.61427
 C759 C 0.73859 0.91934 0.60359
 C760 C 0.72538 0.90128 0.58724
 C761 C 0.76009 0.88572 0.57791
 C762 C 0.74440 0.90597 0.56732
 C763 C 0.77326 0.90381 0.59427
 C764 C 0.75742 0.92426 0.58384
 C765 C 0.72723 0.93916 0.61685
 C766 C 0.71851 0.95645 0.62671
 C767 C 0.77261 0.86821 0.56260
 C768 C 0.78342 0.85511 0.54905
 H769 H 0.73477 0.86254 0.60313
 H770 H 0.75816 0.89654 0.63374
 H771 H 0.70556 0.90046 0.58452
 H772 H 0.74047 0.90863 0.54786
 H773 H 0.79308 0.90467 0.59701
 H774 H 0.76396 0.94237 0.57829
 C775 C 0.25909 0.88122 0.40267
 C776 C 0.24611 0.89987 0.38626
 C777 C 0.26208 0.91989 0.39689
 C778 C 0.27526 0.90161 0.41303
 C779 C 0.24049 0.88629 0.42260
 C780 C 0.25647 0.90634 0.43315
 C781 C 0.22735 0.90459 0.40645
 C782 C 0.24347 0.92484 0.41684
 C783 C 0.27346 0.93971 0.38360
 C784 C 0.28216 0.95703 0.37372
 C785 C 0.22791 0.86877 0.43789
 C786 C 0.21705 0.85562 0.45140
 H787 H 0.26536 0.86305 0.39703
 H788 H 0.24201 0.89744 0.36682
 H789 H 0.29510 0.90061 0.41556
 H790 H 0.26061 0.90884 0.45258
 H791 H 0.20752 0.90563 0.40391
 H792 H 0.23716 0.94297 0.42255
 C793 C 0.09589 0.40641 0.77307
 C794 C 0.07564 0.41683 0.75699
 C795 C 0.08068 0.39702 0.73828
 C796 C 0.10070 0.38635 0.75419
 C797 C 0.11415 0.42271 0.76003
 C798 C 0.11931 0.40291 0.74132
 C799 C 0.09409 0.43330 0.74410
 C800 C 0.09892 0.41331 0.72519
 C801 C 0.06094 0.38375 0.72679
 C802 C 0.04368 0.37389 0.71800
 C803 C 0.13159 0.43800 0.77268
 C804 C 0.14468 0.45151 0.78357
 H805 H 0.09482 0.40372 0.79289
 H806 H 0.05749 0.42244 0.76334
 H807 H 0.10319 0.36688 0.75819
 H808 H 0.13750 0.39737 0.73503
 H809 H 0.09154 0.45276 0.74007
 H810 H 0.09994 0.41599 0.70537
 C811 C 0.09473 0.56692 0.25631
 C812 C 0.09949 0.58713 0.27499
 C813 C 0.08127 0.60323 0.26169
 C814 C 0.07629 0.58320 0.24320
 C815 C 0.11482 0.57737 0.24029
 C816 C 0.09658 0.59349 0.22704
 C817 C 0.11992 0.59739 0.25878
 C818 C 0.10133 0.61376 0.24569
 C819 C 0.06150 0.61660 0.27298
 C820 C 0.04423 0.62655 0.28164
 C821 C 0.13229 0.56199 0.22781
 C822 C 0.14538 0.54842 0.21702
 H823 H 0.09218 0.54750 0.26055
 H824 H 0.10046 0.58468 0.29485
 H825 H 0.05816 0.57748 0.23689
 H826 H 0.09556 0.59595 0.20718
 H827 H 0.13808 0.60304 0.26504
 H828 H 0.10381 0.63319 0.24148
 C829 C 0.90450 0.40640 0.22723
 C830 C 0.92476 0.41671 0.24339
 C831 C 0.91986 0.39658 0.26183
 C832 C 0.89984 0.38604 0.24584
 C833 C 0.88621 0.42239 0.24056
 C834 C 0.88120 0.40229 0.25900
 C835 C 0.90626 0.43286 0.25657
 C836 C 0.90159 0.41256 0.27521
 C837 C 0.93970 0.38325 0.27304
 C838 C 0.95703 0.37333 0.28163
 C839 C 0.86868 0.43775 0.22814
 C840 C 0.85554 0.45132 0.21739
 H841 H 0.90552 0.40402 0.20737
 H842 H 0.94286 0.42252 0.23706
 H843 H 0.89744 0.36661 0.24157
 H844 H 0.86306 0.39654 0.26527
 H845 H 0.90874 0.45228 0.26087
 H846 H 0.90063 0.41493 0.29507
 C847 C 0.88139 0.59771 0.74147
 C848 C 0.90005 0.61413 0.75440
 C849 C 0.92004 0.60346 0.73843
 C850 C 0.90175 0.58731 0.72529
 C851 C 0.88647 0.57780 0.76010
 C852 C 0.90649 0.56721 0.74412
 C853 C 0.90478 0.59397 0.77320
 C854 C 0.92500 0.58354 0.75706
 C855 C 0.93985 0.61671 0.72699
 C856 C 0.95717 0.62654 0.71825
 C857 C 0.86896 0.56251 0.77272
 C858 C 0.85583 0.54899 0.78357
 H859 H 0.86322 0.60335 0.73522
 H860 H 0.89764 0.63359 0.75847
 H861 H 0.90072 0.58474 0.70546
 H862 H 0.90897 0.54776 0.74001
 H863 H 0.90586 0.59655 0.79303
 H864 H 0.94313 0.57783 0.76337
 C865 C 0.74376 0.56704 0.90658
 C866 C 0.75682 0.58282 0.92549
 C867 C 0.73875 0.60324 0.92051
 C868 C 0.72550 0.58763 0.90183
 C869 C 0.76029 0.57751 0.88692
 C870 C 0.74223 0.59792 0.88183
 C871 C 0.77350 0.59313 0.90563
 C872 C 0.75527 0.61379 0.90089
 C873 C 0.72739 0.61654 0.94032
 C874 C 0.71870 0.62643 0.95763
 C875 C 0.77283 0.56222 0.86937
 C876 C 0.78364 0.54874 0.85618
 H877 H 0.73914 0.54766 0.90877
 H878 H 0.76272 0.57672 0.94363
 H879 H 0.70563 0.58554 0.90048
 H880 H 0.73638 0.60395 0.86365
 H881 H 0.79336 0.59523 0.90702
 H882 H 0.75986 0.63318 0.89877
 C883 C 0.22913 0.41626 0.91117
 C884 C 0.23789 0.38994 0.90797
 C885 C 0.26185 0.39683 0.92007
 C886 C 0.25321 0.42295 0.92350
 C887 C 0.24030 0.42271 0.88661
 C888 C 0.26426 0.42958 0.89873
 C889 C 0.24890 0.39659 0.88308
 C890 C 0.27310 0.40323 0.89555
 C891 C 0.27324 0.38345 0.93982
 C892 C 0.28194 0.37351 0.95709
 C893 C 0.22772 0.43807 0.86915
 C894 C 0.21687 0.45161 0.85604
 H895 H 0.21092 0.42177 0.91744
 H896 H 0.22718 0.37349 0.91198
 H897 H 0.25508 0.43368 0.94030
 H898 H 0.27497 0.44604 0.89476
 H899 H 0.24698 0.38593 0.86624
 H900 H 0.29133 0.39769 0.88936
 C901 C 0.26841 0.57707 0.10936
 C902 C 0.26324 0.57529 0.08198
 C903 C 0.26250 0.60297 0.08056
 C904 C 0.26787 0.60504 0.10768
 C905 C 0.24111 0.57711 0.11418
 C906 C 0.24032 0.60480 0.11283
 C907 C 0.23582 0.57513 0.08704
 C908 C 0.23521 0.60298 0.08540
 C909 C 0.27378 0.61635 0.06074
 C910 C 0.28238 0.62628 0.04340
 C911 C 0.22858 0.56174 0.13168
 C912 C 0.21773 0.54819 0.14480
 H913 H 0.28193 0.56626 0.11942
 H914 H 0.27276 0.56327 0.06909
 H915 H 0.28119 0.61752 0.11592
 H916 H 0.23076 0.61676 0.12573
 H917 H 0.22253 0.56269 0.07869
 H918 H 0.22167 0.61377 0.07534
 C919 C 0.74393 0.43317 0.09446
 C920 C 0.75697 0.41681 0.07604
 C921 C 0.73836 0.39686 0.08103
 C922 C 0.72513 0.41304 0.09923
 C923 C 0.75986 0.42267 0.11456
 C924 C 0.74125 0.40273 0.11967
 C925 C 0.77305 0.40647 0.09634
 C926 C 0.75427 0.38628 0.10110
 C927 C 0.72702 0.38351 0.06125
 C928 C 0.71834 0.37359 0.04396
 C929 C 0.77240 0.43800 0.13206
 C930 C 0.78323 0.45152 0.14518
 H931 H 0.73979 0.45260 0.09188
 H932 H 0.76334 0.42248 0.05790
 H933 H 0.70529 0.41558 0.10020
 H934 H 0.73494 0.39713 0.13784
 H935 H 0.79288 0.40392 0.09533
 H936 H 0.75838 0.36684 0.10361
 C937 C 0.89662 0.76915 0.60116
 C938 C 0.89449 0.74349 0.61221
 C939 C 0.92001 0.73780 0.60301
 C940 C 0.92240 0.76323 0.59222
 C941 C 0.88648 0.75940 0.57728
 C942 C 0.91203 0.75365 0.56819
 C943 C 0.88401 0.73395 0.58804
 C944 C 0.90986 0.72806 0.57913
 C945 C 0.93979 0.72642 0.61634
 C946 C 0.95709 0.71774 0.62625
 C947 C 0.86899 0.77200 0.56199
 C948 C 0.85583 0.78288 0.54852
 H949 H 0.89098 0.78618 0.61006
 H950 H 0.88751 0.73916 0.63049
 H951 H 0.93838 0.77517 0.59405
 H952 H 0.91911 0.75795 0.54994
 H953 H 0.86800 0.72205 0.58615
 H954 H 0.91552 0.71105 0.57021
 C955 C 0.91294 0.23490 0.42394
 C956 C 0.91471 0.23417 0.39611
 C957 C 0.91948 0.26149 0.39603
 C958 C 0.91793 0.26234 0.42370
 C959 C 0.88580 0.24011 0.42182
 C960 C 0.89054 0.26744 0.42176
 C961 C 0.88728 0.23921 0.39415
 C962 C 0.89236 0.26679 0.39382
 C963 C 0.93933 0.27277 0.38271
 C964 C 0.95668 0.28140 0.37282
 C965 C 0.86825 0.22762 0.43716
 C966 C 0.85508 0.21683 0.45071
 H967 H 0.92125 0.22167 0.43648
 H968 H 0.92485 0.22060 0.38543
 H969 H 0.93073 0.27195 0.43573
 H970 H 0.88040 0.28098 0.43247
 H971 H 0.87445 0.22957 0.38217
 H972 H 0.88415 0.28004 0.38125
 C973 C 0.11818 0.25958 0.59615
 C974 C 0.09746 0.27529 0.58575
 C975 C 0.07956 0.26216 0.60237
 C976 C 0.09990 0.24665 0.61304
 C977 C 0.11310 0.24054 0.57664
 C978 C 0.09517 0.22745 0.59327
 C979 C 0.09272 0.25607 0.56605
 C980 C 0.07460 0.24312 0.58284
 C981 C 0.05977 0.27355 0.61568
 C982 C 0.04246 0.28224 0.62558
 C983 C 0.13061 0.22794 0.56136
 C984 C 0.14378 0.21707 0.54791
 H985 H 0.13632 0.26619 0.60145
 H986 H 0.09819 0.29510 0.58282
 H987 H 0.10262 0.24293 0.63253
 H988 H 0.09439 0.20764 0.59621
 H989 H 0.08993 0.25982 0.54657
 H990 H 0.05649 0.23645 0.57748
 C991 C 0.09561 0.77339 0.40635
 C992 C 0.10031 0.75474 0.38606
 C993 C 0.08028 0.73872 0.39661
 C994 C 0.07535 0.75721 0.41667
 C995 C 0.11389 0.76012 0.42241
 C996 C 0.09382 0.74409 0.43289
 C997 C 0.11894 0.74163 0.40238
 C998 C 0.09853 0.72541 0.41267
 C999 C 0.06045 0.72744 0.38329
 C1000 C 0.04312 0.71881 0.37339
 C1001 C 0.13142 0.77260 0.43775
 C1002 C 0.14457 0.78338 0.45129
 H1003 H 0.09458 0.79325 0.40390
 H1004 H 0.10275 0.75897 0.36663
 H1005 H 0.05723 0.76352 0.42243
 H1006 H 0.09131 0.73983 0.45231
 H1007 H 0.13709 0.73538 0.39668
 H1008 H 0.09951 0.70555 0.41510
 C1009 C 0.56674 0.90663 0.74373
 C1010 C 0.58295 0.92515 0.75684
 C1011 C 0.60299 0.92029 0.73831
 C1012 C 0.58697 0.90200 0.72501
 C1013 C 0.57727 0.88657 0.75971
 C1014 C 0.59730 0.88160 0.74119
 C1015 C 0.59331 0.90488 0.77297
 C1016 C 0.61359 0.90026 0.75428
 C1017 C 0.61629 0.94017 0.72704
 C1018 C 0.62618 0.95753 0.71841
 C1019 C 0.56198 0.86897 0.77220
 C1020 C 0.54849 0.85576 0.78302
 H1021 H 0.54733 0.90909 0.73951
 H1022 H 0.57716 0.94325 0.76318
 H1023 H 0.58452 0.90104 0.70516
 H1024 H 0.60302 0.86346 0.73490
 H1025 H 0.59576 0.90590 0.79282
 H1026 H 0.63302 0.89787 0.75848
 C1027 C 0.43310 0.90635 0.25620
 C1028 C 0.41665 0.92474 0.24324
 C1029 C 0.39682 0.91973 0.26197
 C1030 C 0.41310 0.90157 0.27513
 C1031 C 0.42255 0.88621 0.24035
 C1032 C 0.40274 0.88108 0.25908
 C1033 C 0.40626 0.90440 0.22723
 C1034 C 0.38619 0.89962 0.24613
 C1035 C 0.38352 0.93953 0.27337
 C1036 C 0.37365 0.95685 0.28206
 C1037 C 0.43784 0.86870 0.22775
 C1038 C 0.45134 0.85556 0.21689
 H1039 H 0.45255 0.90896 0.26023
 H1040 H 0.42226 0.94288 0.23683
 H1041 H 0.41575 0.90062 0.29495
 H1042 H 0.39720 0.86291 0.26544
 H1043 H 0.40360 0.90539 0.20741
 H1044 H 0.36674 0.89708 0.24213
 C1045 C 0.59353 0.09492 0.22703
 C1046 C 0.61375 0.09975 0.24571
 C1047 C 0.60311 0.07985 0.26185
 C1048 C 0.58312 0.07479 0.24333
 C1049 C 0.57744 0.11333 0.24008
 C1050 C 0.56687 0.09341 0.25623
 C1051 C 0.59741 0.11851 0.25859
 C1052 C 0.58703 0.09825 0.27494
 C1053 C 0.61638 0.06009 0.27333
 C1054 C 0.62622 0.04279 0.28210
 C1055 C 0.56218 0.13081 0.22740
 C1056 C 0.54872 0.14393 0.21648
 H1057 H 0.59606 0.09372 0.20719
 H1058 H 0.63320 0.10213 0.24154
 H1059 H 0.57736 0.05663 0.23715
 H1060 H 0.54744 0.09096 0.26043
 H1061 H 0.60310 0.13671 0.26472
 H1062 H 0.58452 0.09940 0.29478
 C1063 C 0.40201 0.11891 0.74110
 C1064 C 0.41236 0.09852 0.72492
 C1065 C 0.39636 0.08021 0.73826
 C1066 C 0.38574 0.10022 0.75423
 C1067 C 0.42206 0.11395 0.75959
 C1068 C 0.40604 0.09561 0.77289
 C1069 C 0.43259 0.09390 0.74361
 C1070 C 0.41641 0.07536 0.75676
 C1071 C 0.38308 0.06032 0.72702
 C1072 C 0.37321 0.04294 0.71842
 C1073 C 0.43734 0.13155 0.77204
 C1074 C 0.45083 0.14476 0.78282
 H1075 H 0.39627 0.13704 0.73481
 H1076 H 0.41480 0.09949 0.70507
 H1077 H 0.36631 0.10259 0.75845
 H1078 H 0.40359 0.09459 0.79274
 H1079 H 0.45201 0.09146 0.73936
 H1080 H 0.42222 0.05727 0.76310
 C1081 C 0.56946 0.75760 0.08734
 C1082 C 0.59534 0.76495 0.08001
 C1083 C 0.60273 0.73824 0.08064
 C1084 C 0.57700 0.73074 0.08775
 C1085 C 0.57670 0.75975 0.11401
 C1086 C 0.58405 0.73303 0.11471
 C1087 C 0.60243 0.76728 0.10692
 C1088 C 0.61008 0.74033 0.10729
 C1089 C 0.61624 0.72689 0.06096
 C1090 C 0.62631 0.71821 0.04375
 C1091 C 0.56126 0.77230 0.13142
 C1092 C 0.54768 0.78312 0.14451
 H1093 H 0.55261 0.76481 0.07928
 H1094 H 0.60010 0.77798 0.06554
 H1095 H 0.56667 0.71560 0.07967
 H1096 H 0.57925 0.72004 0.12920
 H1097 H 0.61273 0.78244 0.11501
 H1098 H 0.62696 0.73308 0.11524
 C1099 C 0.40896 0.22649 0.09382
 C1100 C 0.38745 0.24365 0.09876
 C1101 C 0.39764 0.26127 0.07992
 C1102 C 0.41891 0.24427 0.07476
 C1103 C 0.42362 0.23970 0.11329
 C1104 C 0.43374 0.25733 0.09442
 C1105 C 0.40236 0.25669 0.11857
 C1106 C 0.41229 0.27453 0.09936
 C1107 C 0.38418 0.27266 0.06023
 C1108 C 0.37415 0.28137 0.04302
 C1109 C 0.43901 0.22713 0.13072
 C1110 C 0.45256 0.21630 0.14383
 H1111 H 0.40774 0.20660 0.09171
 H1112 H 0.36825 0.23816 0.10032
 H1113 H 0.42560 0.23926 0.05655
 H1114 H 0.45293 0.26284 0.09279
 H1115 H 0.39573 0.26165 0.13680
 H1116 H 0.41349 0.29442 0.10141
 C1117 C 0.59041 0.22730 0.90520
 C1118 C 0.61221 0.24415 0.90039
 C1119 C 0.60212 0.26196 0.91908
 C1120 C 0.58056 0.24526 0.92412
 C1121 C 0.57611 0.24067 0.88557
 C1122 C 0.56609 0.25848 0.90430
 C1123 C 0.59766 0.25735 0.88041
 C1124 C 0.58784 0.27537 0.89948
 C1125 C 0.61560 0.27316 0.93885
 C1126 C 0.62562 0.28170 0.95614
 C1127 C 0.56068 0.22821 0.86810
 C1128 C 0.54710 0.21742 0.85500
 H1129 H 0.59131 0.20741 0.90739
 H1130 H 0.63133 0.23840 0.89900
 H1131 H 0.57364 0.24038 0.94229
 H1132 H 0.54697 0.26426 0.90574
 H1133 H 0.60451 0.26217 0.86221
 H1134 H 0.58696 0.29528 0.89735
 C1135 C 0.40338 0.74129 0.88113
 C1136 C 0.41361 0.72495 0.90145
 C1137 C 0.39765 0.73825 0.91980
 C1138 C 0.38715 0.75438 0.89985
 C1139 C 0.42351 0.75968 0.88621
 C1140 C 0.40754 0.77294 0.90458
 C1141 C 0.43394 0.74353 0.90619
 C1142 C 0.41780 0.75664 0.92476
 C1143 C 0.38426 0.72695 0.93960
 C1144 C 0.37430 0.71832 0.95690
 C1145 C 0.43887 0.77219 0.86869
 C1146 C 0.45239 0.78303 0.85554
 H1147 H 0.39764 0.73513 0.86297
 H1148 H 0.41595 0.70508 0.90039
 H1149 H 0.36775 0.75870 0.89747
 H1150 H 0.40519 0.79280 0.90569
 H1151 H 0.45333 0.73918 0.90863
 H1152 H 0.42361 0.76285 0.94289
 C1153 C 0.74344 0.90613 0.43426
 C1154 C 0.75641 0.92472 0.41800
 C1155 C 0.73797 0.91961 0.39795
 C1156 C 0.72480 0.90124 0.41404
 C1157 C 0.75961 0.88619 0.42382
 C1158 C 0.74118 0.88096 0.40379
 C1159 C 0.77274 0.90457 0.40772
 C1160 C 0.75414 0.89970 0.38744
 C1161 C 0.72657 0.93932 0.38454
 C1162 C 0.71786 0.95656 0.37454
 C1163 C 0.77223 0.86873 0.43916
 C1164 C 0.78311 0.85560 0.45265
 H1165 H 0.73915 0.90862 0.45367
 H1166 H 0.76258 0.94290 0.42373
 H1167 H 0.70496 0.90008 0.41647
 H1168 H 0.73507 0.86274 0.39813
 H1169 H 0.79258 0.90578 0.40528
 H1170 H 0.75839 0.89727 0.36802
 C1171 C 0.25619 0.90616 0.56653
 C1172 C 0.24308 0.92451 0.58292
 C1173 C 0.26159 0.91944 0.60291
 C1174 C 0.27489 0.90132 0.58670
 C1175 C 0.24020 0.88599 0.57689
 C1176 C 0.25871 0.88081 0.59686
 C1177 C 0.22694 0.90414 0.59311
 C1178 C 0.24562 0.89931 0.61334
 C1179 C 0.27287 0.93919 0.61638
 C1180 C 0.28148 0.95645 0.62641
 C1181 C 0.22772 0.86855 0.56145
 C1182 C 0.21692 0.85546 0.54785
 H1183 H 0.26042 0.90882 0.54713
 H1184 H 0.23675 0.94267 0.57730
 H1185 H 0.29474 0.90037 0.58423
 H1186 H 0.26499 0.86262 0.60241
 H1187 H 0.20710 0.90513 0.59559
 H1188 H 0.24142 0.89672 0.63275
 C1189 C 0.25613 0.09368 0.43382
 C1190 C 0.24316 0.07523 0.41742
 C1191 C 0.26179 0.08030 0.39751
 C1192 C 0.27494 0.09853 0.41373
 C1193 C 0.24015 0.11375 0.42333
 C1194 C 0.25877 0.11894 0.40343
 C1195 C 0.22704 0.09550 0.40710
 C1196 C 0.24582 0.10035 0.38694
 C1197 C 0.27319 0.06056 0.38413
 C1198 C 0.28189 0.04330 0.37418
 C1199 C 0.22753 0.13122 0.43864
 C1200 C 0.21664 0.14436 0.45212
 H1201 H 0.26025 0.09109 0.45325
 H1202 H 0.23685 0.05706 0.42307
 H1203 H 0.29477 0.09956 0.41629
 H1204 H 0.26503 0.13714 0.39786
 H1205 H 0.20721 0.09443 0.40452
 H1206 H 0.24173 0.10287 0.36750
 C1207 C 0.77159 0.10028 0.59721
 C1208 C 0.74878 0.10422 0.61294
 C1209 C 0.73806 0.08081 0.60267
 C1210 C 0.76068 0.07663 0.58719
 C1211 C 0.75946 0.11424 0.57657
 C1212 C 0.74870 0.09080 0.56639
 C1213 C 0.73683 0.11853 0.59201
 C1214 C 0.72591 0.09475 0.58202
 C1215 C 0.72678 0.06108 0.61620
 C1216 C 0.71816 0.04384 0.62627
 C1217 C 0.77194 0.13167 0.56108
 C1218 C 0.78273 0.14475 0.54744
 H1219 H 0.79051 0.10274 0.60331
 H1220 H 0.74866 0.10951 0.63226
 H1221 H 0.77039 0.05921 0.58533
 H1222 H 0.74879 0.08543 0.54710
 H1223 H 0.72717 0.13598 0.59382
 H1224 H 0.70700 0.09227 0.57593
 C1225 C 0.90646 0.56649 0.25670
 C1226 C 0.92489 0.58279 0.24354
 C1227 C 0.91987 0.60286 0.26198
 C1228 C 0.90167 0.58675 0.27533
 C1229 C 0.88637 0.57685 0.24067
 C1230 C 0.88124 0.59691 0.25910
 C1231 C 0.90460 0.59298 0.22736
 C1232 C 0.89981 0.61329 0.24596
 C1233 C 0.93962 0.61634 0.27322
 C1234 C 0.95688 0.62639 0.28182
 C1235 C 0.86888 0.56142 0.22822
 C1236 C 0.85575 0.54785 0.21746
 H1237 H 0.90903 0.54709 0.26100
 H1238 H 0.94303 0.57710 0.23724
 H1239 H 0.90068 0.58435 0.29520
 H1240 H 0.86306 0.60253 0.26535
 H1241 H 0.90563 0.59538 0.20750
 H1242 H 0.89731 0.63271 0.24169
 C1243 C 0.90442 0.40736 0.77278
 C1244 C 0.89946 0.38717 0.75408
 C1245 C 0.91947 0.39766 0.73798
 C1246 C 0.92465 0.41761 0.75652
 C1247 C 0.88617 0.42361 0.75969
 C1248 C 0.90621 0.43403 0.74359
 C1249 C 0.88087 0.40368 0.74116
 C1250 C 0.90125 0.41390 0.72486
 C1251 C 0.93913 0.38421 0.72654
 C1252 C 0.95634 0.37419 0.71780
 C1253 C 0.86879 0.43901 0.77234
 C1254 C 0.85574 0.45255 0.78325
 H1255 H 0.90555 0.40483 0.79261
 H1256 H 0.89691 0.36774 0.75825
 H1257 H 0.94285 0.42322 0.76274
 H1258 H 0.90883 0.45345 0.73939
 H1259 H 0.86264 0.39814 0.73500
 H1260 H 0.90016 0.41642 0.70502
 C1261 C 0.11876 0.59476 0.73965
 C1262 C 0.09680 0.58435 0.72575
 C1263 C 0.08038 0.60262 0.73858
 C1264 C 0.10198 0.61331 0.75228
 C1265 C 0.11382 0.57679 0.76020
 C1266 C 0.09739 0.59506 0.77300
 C1267 C 0.09220 0.56619 0.74647
 C1268 C 0.07556 0.58463 0.75913
 C1269 C 0.06065 0.61601 0.72718
 C1270 C 0.04340 0.62596 0.71847
 C1271 C 0.13128 0.56144 0.77278
 C1272 C 0.14441 0.54792 0.78364
 H1273 H 0.13675 0.59875 0.73179
 H1274 H 0.09635 0.58010 0.70618
 H1275 H 0.10577 0.63285 0.75452
 H1276 H 0.09780 0.59932 0.79257
 H1277 H 0.08832 0.54666 0.74421
 H1278 H 0.05760 0.58057 0.76704
 C1279 C 0.09581 0.40699 0.22689
 C1280 C 0.10047 0.38665 0.24550
 C1281 C 0.08042 0.39716 0.26150
 C1282 C 0.07553 0.41726 0.24305
 C1283 C 0.11408 0.42303 0.24021
 C1284 C 0.09400 0.43347 0.25622
 C1285 C 0.11909 0.40294 0.25866
 C1286 C 0.09867 0.41319 0.27486
 C1287 C 0.06059 0.38376 0.27273
 C1288 C 0.04327 0.37377 0.28132
 C1289 C 0.13166 0.43840 0.22777
 C1290 C 0.14486 0.45193 0.21700
 H1291 H 0.09481 0.40460 0.20703
 H1292 H 0.10290 0.36723 0.24124
 H1293 H 0.05743 0.42304 0.23672
 H1294 H 0.09150 0.45288 0.26050
 H1295 H 0.13723 0.39724 0.26493
 H1296 H 0.09962 0.41557 0.29472
   
