data_POSCAR
  _audit_creation_date              2014-09-24
  _audit_creation_method            'ToBaCCo'
  _symmetry_space_group_name_H-M    'P1'
  _symmetry_Int_Tables_number       1
  _symmetry_cell_setting            triclinic
  loop_
  _symmetry_equiv_pos_as_xyz
 x,y,z
_cell_length_a 77.3726
_cell_length_b 77.3432
_cell_length_c 71.9401
_cell_angle_alpha 90.330700
_cell_angle_beta 89.837300
_cell_angle_gamma 89.826000
loop_
  _atom_site_label
  _atom_site_type_symbol
  _atom_site_fract_x
  _atom_site_fract_y
  _atom_site_fract_z
C1 C 0.38528 0.01739 0.26907
 H2 H 0.38541 0.02492 0.25644
 C3 C 0.39488 0.02281 0.28444
 H4 H 0.40255 0.03447 0.28365
 C5 C 0.37465 -0.00671 0.28581
 H6 H 0.36642 -0.01794 0.28646
 C7 C 0.38403 -0.00174 0.30149
 H8 H 0.38319 -0.00931 0.31408
 N9 N 0.37547 0.00284 0.27000
 C10 C 0.36623 -0.01260 0.21257
 H11 H 0.35226 -0.01317 0.21283
 C12 C 0.37521 -0.01704 0.19639
 H13 H 0.36817 -0.02092 0.18407
 C14 C 0.39252 -0.00702 0.22838
 H15 H 0.39920 -0.00336 0.24096
 C16 C 0.40202 -0.01136 0.21246
 H17 H 0.41601 -0.01083 0.21273
 Zn18 Zn 0.36144 -0.00258 0.24934
 N19 N 0.37494 -0.00755 0.22807
 C20 C 0.34807 0.02584 0.22904
 N21 N 0.34723 0.01688 0.24525
 C22 C 0.33736 0.02253 0.25976
 C23 C 0.32789 0.03784 0.25834
 C24 C 0.33880 0.04124 0.22705
 C25 C 0.35696 -0.03753 0.25614
 C26 C 0.34812 -0.05305 0.25851
 C27 C 0.32113 -0.03731 0.25635
 C28 C 0.33052 -0.02205 0.25404
 N29 N 0.34810 -0.02246 0.25404
 H30 H 0.35634 0.02140 0.21787
 H31 H 0.33722 0.01532 0.27260
 H32 H 0.32035 0.04245 0.27009
 H33 H 0.33983 0.04853 0.21428
 H34 H 0.37094 -0.03748 0.25573
 H35 H 0.35536 -0.06499 0.25999
 H36 H 0.30712 -0.03689 0.25611
 H37 H 0.32374 -0.01000 0.25188
 C38 C 0.39326 -0.01639 0.19634
 C39 C 0.39416 0.01319 0.30081
 C40 C 0.33004 -0.05296 0.25853
 C41 C 0.32877 0.04736 0.24190
 C42 C 0.11385 0.02031 0.72828
 H43 H 0.11366 0.02788 0.74097
 C44 C 0.10415 0.02562 0.71298
 H45 H 0.09634 0.03724 0.71389
 C46 C 0.12455 -0.00390 0.71137
 H47 H 0.13279 -0.01518 0.71065
 C48 C 0.11506 0.00095 0.69577
 H49 H 0.11584 -0.00675 0.68316
 N50 N 0.12368 0.00571 0.72725
 C51 C 0.13167 -0.01014 0.78458
 H52 H 0.14564 -0.01077 0.78474
 C53 C 0.12226 -0.01483 0.80032
 H54 H 0.12898 -0.01894 0.81274
 C55 C 0.10580 -0.00431 0.76809
 H56 H 0.09945 -0.00052 0.75539
 C57 C 0.09589 -0.00889 0.78355
 H58 H 0.08191 -0.00838 0.78283
 Zn59 Zn 0.13733 0.00003 0.74808
 N60 N 0.12337 -0.00489 0.76894
 C61 C 0.15063 0.02811 0.76922
 N62 N 0.15166 0.01924 0.75286
 C63 C 0.16191 0.02476 0.73870
 C64 C 0.17164 0.03981 0.74067
 C65 C 0.16016 0.04325 0.77177
 C66 C 0.14153 -0.03496 0.74084
 C67 C 0.15022 -0.05066 0.73859
 C68 C 0.17734 -0.03547 0.74159
 C69 C 0.16813 -0.02001 0.74376
 N70 N 0.15054 -0.02006 0.74333
 H71 H 0.14207 0.02378 0.78011
 H72 H 0.16219 0.01763 0.72571
 H73 H 0.17952 0.04430 0.72921
 H74 H 0.15903 0.05045 0.78468
 H75 H 0.12755 -0.03464 0.74092
 H76 H 0.14293 -0.06249 0.73685
 H77 H 0.19133 -0.03542 0.74222
 H78 H 0.17502 -0.00809 0.74622
 C79 C 0.10422 -0.01421 0.79979
 C80 C 0.10480 0.01584 0.69659
 C81 C 0.16827 -0.05092 0.73907
 C82 C 0.17063 0.04920 0.75730
 C83 C 0.61409 0.51954 0.22713
 H84 H 0.61341 0.52715 0.23978
 C85 C 0.60491 0.52473 0.21142
 H86 H 0.59699 0.53630 0.21195
 C87 C 0.62562 0.49540 0.21075
 H88 H 0.63401 0.48422 0.21039
 C89 C 0.61667 0.50013 0.19474
 H90 H 0.61800 0.49243 0.18219
 N91 N 0.62411 0.50504 0.22655
 C92 C 0.63102 0.48958 0.28418
 H93 H 0.64499 0.48908 0.28462
 C94 C 0.62138 0.48488 0.29975
 H95 H 0.62791 0.48088 0.31232
 C96 C 0.60540 0.49513 0.26714
 H97 H 0.59924 0.49883 0.25430
 C98 C 0.59525 0.49053 0.28243
 H99 H 0.58129 0.49092 0.28142
 Zn100 Zn 0.63730 0.49963 0.24781
 N101 N 0.62295 0.49469 0.26835
 C102 C 0.64995 0.52790 0.26912
 N103 N 0.65135 0.51898 0.25282
 C104 C 0.66187 0.52449 0.23888
 C105 C 0.67152 0.53958 0.24104
 C106 C 0.65938 0.54307 0.27185
 C107 C 0.64204 0.46463 0.24090
 C108 C 0.65095 0.44905 0.23886
 C109 C 0.67783 0.46457 0.24241
 C110 C 0.66840 0.47992 0.24437
 N111 N 0.65082 0.47965 0.24353
 H112 H 0.64119 0.52357 0.27982
 H113 H 0.66245 0.51732 0.22594
 H114 H 0.67964 0.54404 0.22977
 H115 H 0.65797 0.55030 0.28471
 H116 H 0.62806 0.46479 0.24065
 H117 H 0.64385 0.43712 0.23697
 H118 H 0.69180 0.46479 0.24333
 H119 H 0.67510 0.49192 0.24694
 C120 C 0.60335 0.48534 0.29885
 C121 C 0.60627 0.51494 0.19508
 C122 C 0.66899 0.44901 0.23972
 C123 C 0.67015 0.54900 0.25762
 C124 C 0.88612 0.51797 0.76917
 H125 H 0.88593 0.52545 0.75650
 C126 C 0.89616 0.52343 0.78419
 H127 H 0.90384 0.53507 0.78305
 C128 C 0.87593 0.49395 0.78633
 H129 H 0.86773 0.48271 0.78727
 C130 C 0.88576 0.49893 0.80168
 H131 H 0.88526 0.49135 0.81429
 N132 N 0.87634 0.50343 0.77046
 C133 C 0.86612 0.48761 0.71334
 H134 H 0.85215 0.48705 0.71384
 C135 C 0.87487 0.48310 0.69704
 H136 H 0.86765 0.47917 0.68485
 C137 C 0.89263 0.49325 0.72869
 H138 H 0.89949 0.49695 0.74114
 C139 C 0.90190 0.48883 0.71264
 H140 H 0.91589 0.48937 0.71268
 Zn141 Zn 0.86191 0.49789 0.75016
 N142 N 0.87505 0.49273 0.72867
 C143 C 0.84826 0.52618 0.72986
 N144 N 0.84766 0.51735 0.74617
 C145 C 0.83802 0.52313 0.76080
 C146 C 0.82854 0.53844 0.75939
 C147 C 0.83896 0.54156 0.72788
 C148 C 0.85748 0.46297 0.75732
 C149 C 0.84863 0.44748 0.75984
 C150 C 0.82166 0.46326 0.75808
 C151 C 0.83103 0.47850 0.75561
 N152 N 0.84862 0.47806 0.75530
 H153 H 0.85635 0.52164 0.71859
 H154 H 0.83808 0.51603 0.77371
 H155 H 0.82117 0.54314 0.77123
 H156 H 0.83979 0.54874 0.71502
 H157 H 0.87145 0.46299 0.75668
 H158 H 0.85579 0.43550 0.76122
 H159 H 0.80766 0.46361 0.75806
 H160 H 0.82425 0.49055 0.75352
 C161 C 0.89291 0.48374 0.69668
 C162 C 0.89591 0.51384 0.80062
 C163 C 0.83057 0.44762 0.76013
 C164 C 0.82915 0.54781 0.74285
 C165 C 0.22869 0.40840 0.98331
 H166 H 0.24025 0.40915 0.97488
 C167 C 0.21413 0.41825 0.97873
 H168 H 0.21447 0.42671 0.96679
 C169 C 0.21388 0.39624 1.00901
 H170 H 0.21365 0.38743 1.02058
 C171 C 0.19912 0.40582 1.00493
 H172 H 0.18767 0.40450 1.01351
 N173 N 0.22837 0.39783 0.99839
 C174 C 0.28161 0.39021 1.01617
 H175 H 0.28149 0.37630 1.01771
 C176 C 0.29668 0.39945 1.01980
 H177 H 0.30825 0.39266 1.02412
 C178 C 0.26679 0.41602 1.00819
 H179 H 0.25513 0.42241 1.00368
 C180 C 0.28163 0.42577 1.01166
 H181 H 0.28142 0.43964 1.00963
 Zn182 Zn 0.24812 0.38437 1.00406
 N183 N 0.26720 0.39851 1.01006
 C184 C 0.26917 0.37251 0.97441
 N185 N 0.25353 0.37070 0.98290
 C186 C 0.24121 0.36007 0.97573
 C187 C 0.24448 0.35064 0.95946
 C188 C 0.27296 0.36332 0.95816
 C189 C 0.24139 0.37932 1.04145
 C190 C 0.23754 0.37043 1.05773
 C191 C 0.23857 0.34363 1.04028
 C192 C 0.24241 0.35306 1.02427
 N193 N 0.24350 0.37061 1.02512
 H194 H 0.27863 0.38136 0.97994
 H195 H 0.22875 0.35915 0.98253
 H196 H 0.23456 0.34234 0.95371
 H197 H 0.28536 0.36500 0.95139
 H198 H 0.24251 0.39326 1.04173
 H199 H 0.23574 0.37750 1.07063
 H200 H 0.23761 0.32967 1.03955
 H201 H 0.24443 0.34636 1.01122
 C202 C 0.29675 0.41735 1.01727
 C203 C 0.19925 0.41695 0.98971
 C204 C 0.23602 0.35244 1.05712
 C205 C 0.26049 0.35235 0.95058
 C206 C 0.77041 0.09233 0.98152
 H207 H 0.75891 0.09114 0.97310
 C208 C 0.78514 0.08257 0.97716
 H209 H 0.78496 0.07375 0.96540
 C210 C 0.78483 0.10543 1.00699
 H211 H 0.78485 0.11454 1.01840
 C212 C 0.79978 0.09597 1.00313
 H213 H 0.81112 0.09773 1.01175
 N214 N 0.77044 0.10329 0.99640
 C215 C 0.71692 0.11005 1.01405
 H216 H 0.71666 0.12398 1.01540
 C217 C 0.70206 0.10048 1.01768
 H218 H 0.69026 0.10705 1.02180
 C219 C 0.73250 0.08447 1.00650
 H220 H 0.74439 0.07828 1.00217
 C221 C 0.71789 0.07440 1.00998
 H222 H 0.71850 0.06050 1.00813
 Zn223 Zn 0.75039 0.11645 1.00194
 N224 N 0.73161 0.10199 1.00813
 C225 C 0.72920 0.12732 0.97221
 N226 N 0.74479 0.12956 0.98062
 C227 C 0.75696 0.14022 0.97328
 C228 C 0.75357 0.14927 0.95692
 C229 C 0.72530 0.13613 0.95588
 C230 C 0.75690 0.12243 1.03926
 C231 C 0.76095 0.13172 1.05532
 C232 C 0.75981 0.15808 1.03746
 C233 C 0.75576 0.14827 1.02168
 N234 N 0.75469 0.13074 1.02282
 H235 H 0.71987 0.11844 0.97788
 H236 H 0.76939 0.14147 0.98000
 H237 H 0.76337 0.15761 0.95104
 H238 H 0.71293 0.13412 0.94919
 H239 H 0.75582 0.10850 1.03978
 H240 H 0.76293 0.12495 1.06829
 H241 H 0.76087 0.17201 1.03647
 H242 H 0.75368 0.15464 1.00855
 C243 C 0.70249 0.08254 1.01536
 C244 C 0.79993 0.08438 0.98815
 C245 C 0.76258 0.14967 1.05437
 C246 C 0.73760 0.14715 0.94814
 C247 C 0.26858 0.59356 0.48039
 H248 H 0.25705 0.59253 0.47199
 C249 C 0.28326 0.58381 0.47581
 H250 H 0.28306 0.57517 0.46392
 C251 C 0.28313 0.60622 0.50603
 H252 H 0.28321 0.61517 0.51759
 C253 C 0.29803 0.59677 0.50194
 H254 H 0.30941 0.59832 0.51052
 N255 N 0.26870 0.60430 0.49546
 C256 C 0.21522 0.61096 0.51328
 H257 H 0.21495 0.62489 0.51481
 C258 C 0.20035 0.60136 0.51678
 H259 H 0.18855 0.60788 0.52099
 C260 C 0.23080 0.58547 0.50542
 H261 H 0.24268 0.57933 0.50101
 C262 C 0.21619 0.57537 0.50876
 H263 H 0.21680 0.56149 0.50673
 Zn264 Zn 0.24871 0.61746 0.50123
 N265 N 0.22991 0.60298 0.50727
 C266 C 0.22752 0.62871 0.47166
 N267 N 0.24313 0.63080 0.48009
 C268 C 0.25535 0.64146 0.47284
 C269 C 0.25202 0.65064 0.45655
 C270 C 0.22368 0.63764 0.45539
 C271 C 0.25537 0.62306 0.53859
 C272 C 0.25951 0.63220 0.55472
 C273 C 0.25833 0.65872 0.53714
 C274 C 0.25420 0.64906 0.52128
 N275 N 0.25310 0.63152 0.52225
 H276 H 0.21815 0.61983 0.47724
 H277 H 0.26778 0.64259 0.47958
 H278 H 0.26187 0.65896 0.45074
 H279 H 0.21131 0.63573 0.44866
 H280 H 0.25426 0.60913 0.53897
 H281 H 0.26154 0.62532 0.56761
 H282 H 0.25941 0.67266 0.53628
 H283 H 0.25206 0.65556 0.50823
 C284 C 0.20078 0.58344 0.51423
 C285 C 0.29808 0.58542 0.48678
 C286 C 0.26117 0.65016 0.55395
 C287 C 0.23605 0.64864 0.44773
 C288 C 0.73050 0.90687 0.48147
 H289 H 0.74212 0.90766 0.47312
 C290 C 0.71588 0.91651 0.47663
 H291 H 0.71622 0.92484 0.46458
 C292 C 0.71568 0.89492 0.50727
 H293 H 0.71547 0.88630 0.51900
 C294 C 0.70083 0.90428 0.50292
 H295 H 0.68936 0.90299 0.51147
 N296 N 0.73022 0.89655 0.49674
 C297 C 0.78349 0.89042 0.51504
 H298 H 0.78371 0.87655 0.51682
 C299 C 0.79830 0.90011 0.51858
 H300 H 0.81002 0.89369 0.52307
 C301 C 0.76804 0.91572 0.50656
 H302 H 0.75623 0.92175 0.50192
 C303 C 0.78261 0.92590 0.50993
 H304 H 0.78203 0.93973 0.50768
 Zn305 Zn 0.75016 0.88359 0.50290
 N306 N 0.76889 0.89826 0.50872
 C307 C 0.77165 0.87146 0.47371
 N308 N 0.75599 0.86956 0.48213
 C309 C 0.74393 0.85851 0.47519
 C310 C 0.74752 0.84868 0.45926
 C311 C 0.77575 0.86190 0.45779
 C312 C 0.74317 0.87921 0.54035
 C313 C 0.73927 0.87057 0.55678
 C314 C 0.74104 0.84345 0.53999
 C315 C 0.74491 0.85262 0.52381
 N316 N 0.74565 0.87020 0.52425
 H317 H 0.78089 0.88064 0.47904
 H318 H 0.73145 0.85752 0.48191
 H319 H 0.73782 0.84001 0.45372
 H320 H 0.78818 0.86362 0.45109
 H321 H 0.74401 0.89317 0.54031
 H322 H 0.73716 0.87787 0.56949
 H323 H 0.74034 0.82947 0.53957
 H324 H 0.74723 0.84570 0.51096
 C325 C 0.79791 0.91796 0.51575
 C326 C 0.70096 0.91522 0.48754
 C327 C 0.73808 0.85255 0.55657
 C328 C 0.76358 0.85045 0.45049
 C329 C 0.01268 0.27306 0.40346
 H330 H 0.02401 0.26484 0.40386
 C331 C 0.01198 0.28807 0.41438
 H332 H 0.02276 0.29140 0.42326
 C333 C -0.01508 0.27902 0.39113
 H334 H -0.02548 0.27567 0.38183
 C335 C -0.01630 0.29413 0.40181
 H336 H -0.02770 0.30224 0.40080
 N337 N -0.00079 0.26875 0.39224
 C338 C 0.00305 0.21287 0.38346
 H339 H 0.00254 0.21236 0.36844
 C340 C 0.00417 0.19756 0.39362
 H341 H 0.00454 0.18524 0.38636
 C342 C 0.00305 0.22953 0.41123
 H343 H 0.00240 0.24198 0.41806
 C344 C 0.00417 0.21453 0.42194
 H345 H 0.00450 0.21554 0.43696
 Zn346 Zn 0.00126 0.24851 0.37727
 N347 N 0.00274 0.22845 0.39233
 C348 C 0.03462 0.23894 0.36397
 N349 N 0.02163 0.25078 0.36263
 C350 C 0.02325 0.26491 0.35154
 C351 C 0.03827 0.26736 0.34101
 C352 C 0.04983 0.24090 0.35369
 C353 C -0.03391 0.24298 0.37073
 C354 C -0.04910 0.24118 0.36046
 C355 C -0.03251 0.24508 0.33231
 C356 C -0.01759 0.24682 0.34311
 N357 N -0.01859 0.24599 0.36199
 H358 H 0.03335 0.22805 0.37318
 H359 H 0.01289 0.27431 0.35097
 H360 H 0.03945 0.27864 0.33224
 H361 H 0.06009 0.23142 0.35489
 H362 H -0.03431 0.24215 0.38573
 H363 H -0.06126 0.23901 0.36758
 H364 H -0.03165 0.24595 0.31731
 H365 H -0.00528 0.24885 0.33638
 C366 C 0.00481 0.19839 0.41304
 C367 C -0.00267 0.29869 0.41355
 C368 C -0.04843 0.24234 0.34108
 C369 C 0.05168 0.25523 0.34209
 C370 C 0.01092 0.72759 0.09822
 H371 H 0.02220 0.73581 0.09797
 C372 C 0.01044 0.71265 0.08720
 H373 H 0.02137 0.70936 0.07840
 C374 C -0.01700 0.72162 0.11019
 H375 H -0.02757 0.72497 0.11936
 C376 C -0.01800 0.70656 0.09940
 H377 H -0.02938 0.69848 0.10021
 N378 N -0.00276 0.73188 0.10929
 C379 C 0.00060 0.78784 0.11776
 H380 H -0.00008 0.78847 0.13277
 C381 C 0.00182 0.80306 0.10746
 H382 H 0.00210 0.81545 0.11456
 C383 C 0.00095 0.77096 0.09014
 H384 H 0.00041 0.75846 0.08341
 C385 C 0.00217 0.78588 0.07931
 H386 H 0.00270 0.78479 0.06430
 Zn387 Zn -0.00105 0.75219 0.12421
 N388 N 0.00044 0.77218 0.10903
 C389 C 0.03205 0.76196 0.13777
 N390 N 0.01918 0.75004 0.13901
 C391 C 0.02079 0.73597 0.15018
 C392 C 0.03565 0.73366 0.16093
 C393 C 0.04710 0.76013 0.14828
 C394 C -0.03637 0.75761 0.13062
 C395 C -0.05165 0.75943 0.14085
 C396 C -0.03516 0.75581 0.16907
 C397 C -0.02017 0.75405 0.15828
 N398 N -0.02107 0.75472 0.13939
 H399 H 0.03080 0.77281 0.12851
 H400 H 0.01052 0.72653 0.15067
 H401 H 0.03681 0.72244 0.16980
 H402 H 0.05727 0.76968 0.14718
 H403 H -0.03668 0.75833 0.11561
 H404 H -0.06375 0.76151 0.13363
 H405 H -0.03429 0.75507 0.18408
 H406 H -0.00788 0.75214 0.16503
 C407 C 0.00270 0.80207 0.08806
 C408 C -0.00417 0.70205 0.08777
 C409 C -0.05109 0.75842 0.16027
 C410 C 0.04893 0.74587 0.15998
 C411 C 0.51135 0.22701 0.59768
 H412 H 0.52263 0.23523 0.59732
 C413 C 0.51081 0.21202 0.58672
 H414 H 0.52169 0.20870 0.57787
 C415 C 0.48351 0.22107 0.60989
 H416 H 0.47301 0.22444 0.61914
 C417 C 0.48245 0.20597 0.59917
 H418 H 0.47108 0.19789 0.60012
 N419 N 0.49774 0.23134 0.60883
 C420 C 0.50114 0.28734 0.61703
 H421 H 0.50058 0.28803 0.63204
 C422 C 0.50220 0.30252 0.60665
 H423 H 0.50249 0.31494 0.61369
 C424 C 0.50129 0.27036 0.58948
 H425 H 0.50072 0.25783 0.58281
 C426 C 0.50235 0.28524 0.57858
 H427 H 0.50273 0.28409 0.56357
 Zn428 Zn 0.49950 0.25171 0.62364
 N429 N 0.50093 0.27165 0.60837
 C430 C 0.53265 0.26149 0.63710
 N431 N 0.51977 0.24960 0.63838
 C432 C 0.52137 0.23555 0.64958
 C433 C 0.53623 0.23324 0.66034
 C434 C 0.54771 0.25968 0.64761
 C435 C 0.46420 0.25714 0.63016
 C436 C 0.44897 0.25907 0.64045
 C437 C 0.46553 0.25561 0.66861
 C438 C 0.48048 0.25374 0.65779
 N439 N 0.47953 0.25430 0.63889
 H440 H 0.53140 0.27233 0.62781
 H441 H 0.51109 0.22611 0.65011
 H442 H 0.53738 0.22205 0.66923
 H443 H 0.55787 0.26922 0.64649
 H444 H 0.46383 0.25777 0.61515
 H445 H 0.43681 0.26113 0.63335
 H446 H 0.46637 0.25499 0.68362
 H447 H 0.49280 0.25185 0.66451
 C448 C 0.50288 0.30147 0.58725
 C449 C 0.49620 0.20142 0.58745
 C450 C 0.44961 0.25822 0.65985
 C451 C 0.54951 0.24545 0.65936
 C452 C 0.51217 0.77353 0.90191
 H453 H 0.52355 0.76537 0.90239
 C454 C 0.51137 0.78860 0.91272
 H455 H 0.52212 0.79206 0.92158
 C456 C 0.48439 0.77924 0.88951
 H457 H 0.47402 0.77576 0.88022
 C458 C 0.48306 0.79441 0.90007
 H459 H 0.47162 0.80244 0.89898
 N460 N 0.49873 0.76905 0.89072
 C461 C 0.50280 0.71311 0.88255
 H462 H 0.50233 0.71247 0.86753
 C463 C 0.50390 0.69790 0.89286
 H464 H 0.50431 0.68551 0.88578
 C465 C 0.50268 0.73002 0.91015
 H466 H 0.50198 0.74253 0.91686
 C467 C 0.50377 0.71510 0.92100
 H468 H 0.50404 0.71620 0.93602
 Zn469 Zn 0.50084 0.74868 0.87598
 N470 N 0.50243 0.72877 0.89126
 C471 C 0.53422 0.73911 0.86276
 N472 N 0.52117 0.75087 0.86125
 C473 C 0.52273 0.76487 0.84998
 C474 C 0.53775 0.76730 0.83945
 C475 C 0.54943 0.74105 0.85248
 C476 C 0.46572 0.74287 0.86974
 C477 C 0.45047 0.74084 0.85964
 C478 C 0.46681 0.74462 0.83129
 C479 C 0.48179 0.74659 0.84193
 N480 N 0.48095 0.74592 0.86083
 H481 H 0.53300 0.72831 0.87211
 H482 H 0.51231 0.77421 0.84928
 H483 H 0.53889 0.77850 0.83055
 H484 H 0.55975 0.73165 0.85383
 H485 H 0.46544 0.74218 0.88475
 H486 H 0.43839 0.73862 0.86689
 H487 H 0.46754 0.74534 0.81627
 H488 H 0.49404 0.74867 0.83508
 C489 C 0.50445 0.69890 0.91227
 C490 C 0.49666 0.79912 0.91180
 C491 C 0.45099 0.74180 0.84024
 C492 C 0.55123 0.75527 0.84073
 C493 C -0.23163 0.63887 0.98149
 H494 H -0.22425 0.63868 0.99424
 C495 C -0.22598 0.64876 0.96649
 H496 H -0.21428 0.65635 0.96769
 C497 C -0.25564 0.62883 0.96411
 H498 H -0.26696 0.62075 0.96308
 C499 C -0.25045 0.63853 0.94878
 H500 H -0.25792 0.63807 0.93608
 N501 N -0.24627 0.62925 0.98008
 C502 C -0.26267 0.62002 1.03714
 H503 H -0.26332 0.60604 1.03690
 C504 C -0.26733 0.62912 1.05320
 H505 H -0.27144 0.62213 1.06544
 C506 C -0.25673 0.64620 1.02135
 H507 H -0.25287 0.65279 1.00882
 C508 C -0.26127 0.65582 1.03713
 H509 H -0.26066 0.66981 1.03676
 Zn510 Zn -0.25218 0.61512 1.00045
 N511 N -0.25735 0.62862 1.02171
 C512 C -0.22423 0.60126 1.02121
 N513 N -0.23296 0.60067 1.00481
 C514 C -0.22723 0.59085 0.99029
 C515 C -0.21208 0.58115 0.99191
 C516 C -0.20900 0.59176 1.02340
 C517 C -0.28707 0.61101 0.99281
 C518 C -0.30261 0.60230 0.99010
 C519 C -0.28717 0.57518 0.99239
 C520 C -0.27187 0.58441 0.99504
 N521 N -0.27211 0.60201 0.99517
 H522 H -0.22874 0.60950 1.03239
 H523 H -0.23424 0.59091 0.97730
 H524 H -0.20741 0.57363 0.98016
 H525 H -0.20190 0.59257 1.03633
 H526 H -0.28690 0.62499 0.99331
 H527 H -0.31450 0.60957 0.98844
 H528 H -0.28697 0.56117 0.99256
 H529 H -0.25992 0.57751 0.99740
 C530 C -0.26661 0.64719 1.05319
 C531 C -0.23547 0.64854 0.94998
 C532 C -0.30267 0.58423 0.98999
 C533 C -0.20282 0.58174 1.00855
 C534 C -0.23097 0.36285 0.52411
 H535 H -0.22324 0.36238 0.51155
 C536 C -0.22604 0.35397 0.53911
 H537 H -0.21435 0.34624 0.53868
 C538 C -0.25591 0.37432 0.53959
 H539 H -0.26712 0.38265 0.53997
 C540 C -0.25103 0.36467 0.55640
 H541 H -0.25904 0.36574 0.56876
 N542 N -0.24644 0.37324 0.52462
 C543 C -0.26070 0.38096 0.46673
 H544 H -0.26126 0.39494 0.46651
 C545 C -0.26504 0.37147 0.45088
 H546 H -0.26883 0.37813 0.43832
 C547 C -0.25539 0.35516 0.48350
 H548 H -0.25194 0.34888 0.49635
 C549 C -0.25964 0.34517 0.46794
 H550 H -0.25923 0.33119 0.46874
 Zn551 Zn -0.25150 0.38679 0.50354
 N552 N -0.25589 0.37273 0.48257
 C553 C -0.22280 0.39991 0.48338
 N554 N -0.23212 0.40101 0.49943
 C555 C -0.22695 0.41123 0.51381
 C556 C -0.21177 0.42085 0.51242
 C557 C -0.20752 0.40932 0.48142
 C558 C -0.28665 0.39119 0.50955
 C559 C -0.30233 0.39997 0.51138
 C560 C -0.28691 0.42703 0.50895
 C561 C -0.27147 0.41771 0.50718
 N562 N -0.27164 0.40012 0.50755
 H563 H -0.22688 0.39138 0.47232
 H564 H -0.23444 0.41158 0.52653
 H565 H -0.20757 0.42870 0.52406
 H566 H -0.19996 0.40813 0.46878
 H567 H -0.28640 0.37720 0.50945
 H568 H -0.31421 0.39270 0.51278
 H569 H -0.28671 0.44103 0.50842
 H570 H -0.25946 0.42453 0.50512
 C571 C -0.26453 0.35342 0.45151
 C572 C -0.23664 0.35498 0.55621
 C573 C -0.30247 0.41804 0.51100
 C574 C -0.20191 0.41975 0.49614
 C575 C 0.27003 -0.13673 0.02302
 H576 H 0.27760 -0.13759 0.01037
 C577 C 0.27485 -0.14556 0.03809
 H578 H 0.28630 -0.15365 0.03764
 C579 C 0.24561 -0.12432 0.03863
 H580 H 0.23464 -0.11568 0.03900
 C581 C 0.25038 -0.13389 0.05553
 H582 H 0.24252 -0.13244 0.06795
 N583 N 0.25487 -0.12590 0.02355
 C584 C 0.24004 -0.11876 -0.03425
 H585 H 0.23977 -0.10479 -0.03470
 C586 C 0.23534 -0.12837 -0.04990
 H587 H 0.23158 -0.12180 -0.06253
 C588 C 0.24500 -0.14444 -0.01715
 H589 H 0.24848 -0.15062 -0.00426
 C590 C 0.24039 -0.15455 -0.03251
 H591 H 0.24055 -0.16852 -0.03151
 Zn592 Zn 0.24988 -0.11259 0.00228
 N593 N 0.24486 -0.12688 -0.01836
 C594 C 0.27858 -0.10058 -0.01866
 N595 N 0.26956 -0.09894 -0.00247
 C596 C 0.27519 -0.08852 0.01154
 C597 C 0.29052 -0.07923 0.00958
 C598 C 0.29399 -0.09152 -0.02119
 C599 C 0.21494 -0.10719 0.00871
 C600 C 0.19949 -0.09799 0.01051
 C601 C 0.21554 -0.07138 0.00724
 C602 C 0.23073 -0.08111 0.00551
 N603 N 0.23013 -0.09868 0.00630
 H604 H 0.27413 -0.10926 -0.02943
 H605 H 0.26793 -0.08773 0.02439
 H606 H 0.29508 -0.07119 0.02092
 H607 H 0.30129 -0.09312 -0.03396
 H608 H 0.21483 -0.12117 0.00894
 H609 H 0.18744 -0.10493 0.01222
 H610 H 0.21608 -0.05741 0.00635
 H611 H 0.24288 -0.07463 0.00314
 C612 C 0.23550 -0.14641 -0.04901
 C613 C 0.26446 -0.14403 0.05530
 C614 C 0.19978 -0.07994 0.00967
 C615 C 0.30006 -0.08086 -0.00687
 C616 C 0.26945 1.13815 0.48170
 H617 H 0.27687 1.13786 0.49442
 C618 C 0.27494 1.14832 0.46684
 H619 H 0.28655 1.15602 0.46812
 C620 C 0.24553 1.12803 0.46422
 H621 H 0.23432 1.11981 0.46307
 C622 C 0.25056 1.13801 0.44904
 H623 H 0.24308 1.13762 0.43634
 N624 N 0.25495 1.12833 0.48016
 C625 C 0.23900 1.11748 0.53701
 H626 H 0.23852 1.10351 0.53632
 C627 C 0.23434 1.12607 0.55339
 H628 H 0.23039 1.11872 0.56544
 C629 C 0.24455 1.14417 0.52206
 H630 H 0.24827 1.15117 0.50974
 C631 C 0.23999 1.15328 0.53819
 H632 H 0.24044 1.16728 0.53833
 Zn633 Zn 0.24937 1.11368 0.50019
 N634 N 0.24413 1.12658 0.52185
 C635 C 0.27760 1.09978 0.52045
 N636 N 0.26882 1.09941 0.50408
 C637 C 0.27463 1.08995 0.48931
 C638 C 0.28990 1.08041 0.49064
 C639 C 0.29295 1.09042 0.52236
 C640 C 0.21450 1.10923 0.49270
 C641 C 0.19906 1.10035 0.48992
 C642 C 0.21491 1.07340 0.49144
 C643 C 0.23010 1.08280 0.49418
 N644 N 0.22960 1.10040 0.49472
 H645 H 0.27303 1.10773 0.53184
 H646 H 0.26757 1.09019 0.47635
 H647 H 0.29462 1.07318 0.47871
 H648 H 0.30007 1.09105 0.53529
 H649 H 0.21447 1.12320 0.49354
 H650 H 0.18706 1.10748 0.48855
 H651 H 0.21531 1.05940 0.49130
 H652 H 0.24216 1.07603 0.49628
 C653 C 0.23486 1.14412 0.55397
 C654 C 0.26543 1.14817 0.45035
 C655 C 0.19926 1.08229 0.48939
 C656 C 0.29921 1.08078 0.50727
 C657 C 0.15502 0.47900 0.26687
 H658 H 0.15585 0.49051 0.27542
 C659 C 0.16470 0.46432 0.27139
 H660 H 0.17310 0.46451 0.28340
 C661 C 0.14292 0.46449 0.24086
 H662 H 0.13422 0.46444 0.22916
 C663 C 0.15232 0.44960 0.24488
 H664 H 0.15098 0.43823 0.23613
 N665 N 0.14459 0.47890 0.25165
 C666 C 0.13829 0.53243 0.23438
 H667 H 0.12440 0.53269 0.23272
 C668 C 0.14795 0.54728 0.23102
 H669 H 0.14150 0.55907 0.22680
 C670 C 0.16365 0.51684 0.24233
 H671 H 0.16971 0.50495 0.24669
 C672 C 0.17381 0.53144 0.23914
 H673 H 0.18765 0.53081 0.24123
 Zn674 Zn 0.13157 0.49892 0.24596
 N675 N 0.14617 0.51774 0.24035
 C676 C 0.11979 0.52000 0.27568
 N677 N 0.11778 0.50446 0.26697
 C678 C 0.10690 0.49225 0.27385
 C679 C 0.09742 0.49554 0.29007
 C680 C 0.11056 0.52380 0.29189
 C681 C 0.12681 0.49249 0.20845
 C682 C 0.11805 0.48882 0.19200
 C683 C 0.09107 0.49021 0.20905
 C684 C 0.10039 0.49386 0.22523
 N685 N 0.11796 0.49468 0.22465
 H686 H 0.12883 0.52936 0.27037
 H687 H 0.10583 0.47987 0.26689
 H688 H 0.08894 0.48570 0.29560
 H689 H 0.11242 0.53611 0.29885
 H690 H 0.14076 0.49338 0.20840
 H691 H 0.12531 0.48695 0.17923
 H692 H 0.07709 0.48946 0.20965
 H693 H 0.09360 0.49594 0.23819
 C694 C 0.16583 0.54684 0.23368
 C695 C 0.16336 0.44953 0.26021
 C696 C 0.10002 0.48755 0.19231
 C697 C 0.09935 0.51144 0.29919
 C698 C -0.15563 1.01871 0.26843
 H699 H -0.15664 1.00718 0.27680
 C700 C -0.16546 1.03336 0.27295
 H701 H -0.17416 1.03313 0.28476
 C702 C -0.14288 1.03331 0.24295
 H703 H -0.13387 1.03343 0.23148
 C704 C -0.15242 1.04818 0.24699
 H705 H -0.15087 1.05957 0.23846
 N706 N -0.14480 1.01887 0.25347
 C707 C -0.13767 0.96542 0.23555
 H708 H -0.12375 0.96527 0.23414
 C709 C -0.14713 0.95046 0.23193
 H710 H -0.14049 0.93871 0.22775
 C711 C -0.16333 0.98079 0.24325
 H712 H -0.16958 0.99263 0.24765
 C713 C -0.17328 0.96608 0.23979
 H714 H -0.18717 0.96657 0.24171
 Zn715 Zn -0.13150 0.99895 0.24779
 N716 N -0.14581 0.98005 0.24155
 C717 C -0.12030 0.97783 0.27743
 N718 N -0.11825 0.99345 0.26907
 C719 C -0.10772 1.00574 0.27646
 C720 C -0.09863 1.00247 0.29284
 C721 C -0.11146 0.97404 0.29378
 C722 C -0.12572 1.00556 0.21049
 C723 C -0.11653 1.00973 0.19445
 C724 C -0.09010 1.00882 0.21230
 C725 C -0.09983 1.00465 0.22806
 N726 N -0.11734 1.00341 0.22692
 H727 H -0.12908 0.96840 0.27172
 H728 H -0.10662 1.01819 0.26977
 H729 H -0.09041 1.01237 0.29876
 H730 H -0.11333 0.96166 0.30044
 H731 H -0.13964 1.00434 0.20998
 H732 H -0.12339 1.01166 0.18150
 H733 H -0.07619 1.01001 0.21335
 H734 H -0.09340 1.00261 0.24117
 C735 C -0.16505 0.95074 0.23435
 C736 C -0.16385 1.04818 0.26204
 C737 C -0.09858 1.01155 0.19539
 C738 C -0.10059 0.98648 0.30159
 C739 C 0.34442 0.51909 -0.23060
 H740 H 0.34333 0.50757 -0.22223
 C741 C 0.33490 0.53390 -0.22591
 H742 H 0.32636 0.53380 -0.21395
 C743 C 0.35701 0.53349 -0.25630
 H744 H 0.36584 0.53347 -0.26793
 C745 C 0.34778 0.54851 -0.25210
 H746 H 0.34939 0.55988 -0.26066
 N747 N 0.35501 0.51908 -0.24576
 C748 C 0.36148 0.46469 -0.26426
 H749 H 0.37536 0.46449 -0.26618
 C750 C 0.35221 0.45047 -0.26758
 H751 H 0.35859 0.43871 -0.27221
 C752 C 0.33642 0.48117 -0.25586
 H753 H 0.33037 0.49302 -0.25124
 C754 C 0.32567 0.46574 -0.25928
 H755 H 0.31185 0.46643 -0.25679
 Zn756 Zn 0.36787 0.49893 -0.25176
 N757 N 0.35316 0.48024 -0.25772
 C758 C 0.37938 0.47751 -0.22255
 N759 N 0.38147 0.49316 -0.23084
 C760 C 0.39238 0.50523 -0.22367
 C761 C 0.40187 0.50167 -0.20763
 C762 C 0.38862 0.47345 -0.20652
 C763 C 0.37307 0.50554 -0.28918
 C764 C 0.38205 0.50961 -0.30539
 C765 C 0.40876 0.50814 -0.28811
 C766 C 0.39925 0.50409 -0.27216
 N767 N 0.38170 0.50318 -0.27294
 H768 H 0.37032 0.46826 -0.22808
 H769 H 0.39352 0.51769 -0.23030
 H770 H 0.41044 0.51138 -0.20191
 H771 H 0.38675 0.46103 -0.19993
 H772 H 0.35912 0.50458 -0.28941
 H773 H 0.37504 0.51173 -0.31820
 H774 H 0.42271 0.50908 -0.28740
 H775 H 0.40589 0.50188 -0.25920
 C776 C 0.33332 0.45093 -0.26461
 C777 C 0.33658 0.54870 -0.23685
 C778 C 0.40003 0.51109 -0.30480
 C779 C 0.39992 0.48564 -0.19897
 C780 C 0.65661 -0.02098 -0.23219
 H781 H 0.65760 -0.00942 -0.22372
 C782 C 0.66593 -0.03505 -0.22797
 H783 H 0.67451 -0.03487 -0.21610
 C784 C 0.64339 -0.03501 -0.25818
 H785 H 0.63444 -0.03516 -0.26964
 C786 C 0.65340 -0.05074 -0.25409
 H787 H 0.65184 -0.06205 -0.26289
 N788 N 0.64527 -0.02113 -0.24803
 C789 C 0.63872 0.03239 -0.26527
 H790 H 0.62481 0.03266 -0.26672
 C791 C 0.64834 0.04725 -0.26873
 H792 H 0.64181 0.05903 -0.27285
 C793 C 0.66416 0.01679 -0.25765
 H794 H 0.67026 0.00490 -0.25336
 C795 C 0.67430 0.03139 -0.26095
 H796 H 0.68817 0.03071 -0.25900
 Zn797 Zn 0.63215 -0.00110 -0.25352
 N798 N 0.64667 0.01769 -0.25941
 C799 C 0.62079 0.02008 -0.22368
 N800 N 0.61871 0.00448 -0.23226
 C801 C 0.60787 -0.00767 -0.22521
 C802 C 0.59841 -0.00424 -0.20902
 C803 C 0.61159 0.02402 -0.20749
 C804 C 0.62660 -0.00771 -0.29096
 C805 C 0.61744 -0.01159 -0.30710
 C806 C 0.59090 -0.01001 -0.28936
 C807 C 0.60058 -0.00615 -0.27349
 N808 N 0.61813 -0.00536 -0.27454
 H809 H 0.62980 0.02939 -0.22912
 H810 H 0.60673 -0.02009 -0.23208
 H811 H 0.58987 -0.01400 -0.20341
 H812 H 0.61342 0.03641 -0.20068
 H813 H 0.64055 -0.00682 -0.29140
 H814 H 0.62433 -0.01366 -0.32007
 H815 H 0.57694 -0.01081 -0.28845
 H816 H 0.59407 -0.00392 -0.26039
 C817 C 0.66627 0.04681 -0.26629
 C818 C 0.66428 -0.05075 -0.23965
 C819 C 0.59945 -0.01290 -0.30626
 C820 C 0.60033 0.01176 -0.20008
 C821 C 0.02339 0.26224 0.84737
 H822 H 0.01502 0.27346 0.84687
 C823 C 0.03844 0.26167 0.83656
 H824 H 0.04166 0.27246 0.82767
 C825 C 0.02966 0.23461 0.85981
 H826 H 0.02639 0.22420 0.86911
 C827 C 0.04481 0.23352 0.84925
 H828 H 0.05306 0.22223 0.85035
 N829 N 0.01920 0.24875 0.85858
 C830 C -0.03678 0.25192 0.86669
 H831 H -0.03741 0.25158 0.88171
 C832 C -0.05201 0.25265 0.85633
 H833 H -0.06440 0.25290 0.86337
 C834 C -0.01990 0.25181 0.83913
 H835 H -0.00739 0.25125 0.83246
 C836 C -0.03482 0.25253 0.82823
 H837 H -0.03374 0.25265 0.81322
 Zn838 Zn -0.00117 0.25061 0.87332
 N839 N -0.02112 0.25172 0.85802
 C840 C -0.01126 0.28392 0.88649
 N841 N 0.00074 0.27108 0.88795
 C842 C 0.01478 0.27293 0.89914
 C843 C 0.01702 0.28803 0.90966
 C844 C -0.00952 0.29920 0.89676
 C845 C -0.00629 0.21539 0.87990
 C846 C -0.00801 0.20022 0.89018
 C847 C -0.00452 0.21701 0.91833
 C848 C -0.00287 0.23190 0.90751
 N849 N -0.00353 0.23079 0.88863
 H850 H -0.02210 0.28247 0.87720
 H851 H 0.02430 0.26267 0.89981
 H852 H 0.02824 0.28939 0.91851
 H853 H -0.01912 0.30935 0.89546
 H854 H -0.00700 0.21490 0.86488
 H855 H -0.00999 0.18800 0.88307
 H856 H -0.00379 0.21796 0.93334
 H857 H -0.00104 0.24427 0.91424
 C858 C -0.05102 0.25301 0.83692
 C859 C 0.04923 0.24716 0.83749
 C860 C -0.00702 0.20101 0.90957
 C861 C 0.00474 0.30129 0.90845
 C862 C 0.47769 0.26214 0.15253
 H863 H 0.48602 0.27335 0.15290
 C864 C 0.46274 0.26176 0.16350
 H865 H 0.45956 0.27268 0.17238
 C866 C 0.47144 0.23433 0.14028
 H867 H 0.47468 0.22378 0.13102
 C868 C 0.45638 0.23343 0.15101
 H869 H 0.44819 0.22213 0.15006
 N870 N 0.48185 0.24848 0.14135
 C871 C 0.53782 0.25134 0.13306
 H872 H 0.53844 0.25072 0.11805
 C873 C 0.55305 0.25232 0.14341
 H874 H 0.56544 0.25248 0.13635
 C875 C 0.52097 0.25175 0.16064
 H876 H 0.50847 0.25132 0.16734
 C877 C 0.53590 0.25274 0.17152
 H878 H 0.53483 0.25320 0.18653
 Zn879 Zn 0.50216 0.25003 0.12651
 N880 N 0.52217 0.25131 0.14175
 C881 C 0.51219 0.28308 0.11307
 N882 N 0.50017 0.27030 0.11179
 C883 C 0.48610 0.27203 0.10061
 C884 C 0.48391 0.28689 0.08986
 C885 C 0.51049 0.29813 0.10257
 C886 C 0.50724 0.21465 0.11990
 C887 C 0.50888 0.19937 0.10956
 C888 C 0.50542 0.21597 0.08147
 C889 C 0.50384 0.23096 0.09234
 N890 N 0.50451 0.23001 0.11122
 H891 H 0.52304 0.28174 0.12236
 H892 H 0.47657 0.26183 0.10008
 H893 H 0.47269 0.28813 0.08098
 H894 H 0.52013 0.30821 0.10369
 H895 H 0.50797 0.21427 0.13491
 H896 H 0.51082 0.18719 0.11662
 H897 H 0.50467 0.21681 0.06646
 H898 H 0.50205 0.24329 0.08565
 C899 C 0.55209 0.25311 0.16281
 C900 C 0.45201 0.24725 0.16275
 C901 C 0.50786 0.20002 0.09017
 C902 C 0.49624 0.30005 0.09083
 C903 C -0.02334 0.76282 0.65299
 H904 H -0.01496 0.77399 0.65341
 C905 C -0.03767 0.76246 0.66348
 H906 H -0.04086 0.77334 0.67240
 C907 C -0.02900 0.73493 0.63998
 H908 H -0.02585 0.72442 0.63063
 C909 C -0.04491 0.73395 0.65132
 H910 H -0.05304 0.72260 0.65025
 N911 N -0.01898 0.74841 0.64110
 C912 C 0.03700 0.75127 0.63291
 H913 H 0.03764 0.75071 0.61789
 C914 C 0.05220 0.75220 0.64329
 H915 H 0.06460 0.75239 0.63626
 C916 C 0.02008 0.75159 0.66045
 H917 H 0.00757 0.75115 0.66710
 C918 C 0.03499 0.75252 0.67136
 H919 H 0.03389 0.75292 0.68637
 Zn920 Zn 0.00135 0.75003 0.62628
 N921 N 0.02133 0.75121 0.64156
 C922 C 0.01146 0.78314 0.61307
 N923 N -0.00060 0.77040 0.61171
 C924 C -0.01465 0.77222 0.60053
 C925 C -0.01678 0.78714 0.58985
 C926 C 0.00982 0.79823 0.60264
 C927 C 0.00644 0.71468 0.61943
 C928 C 0.00807 0.69946 0.60901
 C929 C 0.00462 0.71621 0.58101
 C930 C 0.00304 0.73114 0.59197
 N931 N 0.00371 0.73009 0.61085
 H932 H 0.02230 0.78172 0.62236
 H933 H -0.02422 0.76206 0.59993
 H934 H -0.02798 0.78845 0.58095
 H935 H 0.01950 0.80827 0.60382
 H936 H 0.00715 0.71422 0.63444
 H937 H 0.01000 0.68724 0.61599
 H938 H 0.00387 0.71713 0.56602
 H939 H 0.00124 0.74351 0.58536
 C940 C 0.05120 0.75291 0.66270
 C941 C -0.04908 0.74716 0.66264
 C942 C 0.00705 0.70021 0.58962
 C943 C -0.00440 0.80025 0.59089
 C944 C 0.52356 0.76169 0.34648
 H945 H 0.51524 0.77294 0.34598
 C946 C 0.53867 0.76112 0.33578
 H947 H 0.54198 0.77193 0.32697
 C948 C 0.52966 0.73399 0.35886
 H949 H 0.52632 0.72357 0.36810
 C950 C 0.54488 0.73290 0.34840
 H951 H 0.55309 0.72159 0.34952
 N952 N 0.51927 0.74818 0.35761
 C953 C 0.46329 0.75164 0.36566
 H954 H 0.46266 0.75125 0.38067
 C955 C 0.44808 0.75249 0.35528
 H956 H 0.43568 0.75279 0.36232
 C957 C 0.48019 0.75154 0.33811
 H958 H 0.49270 0.75095 0.33144
 C959 C 0.46528 0.75239 0.32720
 H960 H 0.46637 0.75256 0.31219
 Zn961 Zn 0.49889 0.75010 0.37231
 N962 N 0.47895 0.75139 0.35700
 C963 C 0.48900 0.78345 0.38554
 N964 N 0.50091 0.77052 0.38700
 C965 C 0.51497 0.77226 0.39820
 C966 C 0.51732 0.78734 0.40871
 C967 C 0.49087 0.79872 0.39580
 C968 C 0.49358 0.71490 0.37875
 C969 C 0.49178 0.69971 0.38898
 C970 C 0.49531 0.71639 0.41720
 C971 C 0.49705 0.73131 0.40643
 N972 N 0.49640 0.73026 0.38754
 H973 H 0.47816 0.78208 0.37624
 H974 H 0.52441 0.76193 0.39886
 H975 H 0.52855 0.78862 0.41755
 H976 H 0.48135 0.80894 0.39449
 H977 H 0.49289 0.71446 0.36374
 H978 H 0.48976 0.68752 0.38183
 H979 H 0.49603 0.71729 0.43221
 H980 H 0.49894 0.74365 0.41320
 C981 C 0.44907 0.75293 0.33588
 C982 C 0.54942 0.74658 0.33674
 C983 C 0.49275 0.70044 0.40838
 C984 C 0.50515 0.80070 0.40748
 B985 B -0.01031 0.01019 1.01232
 B986 B -0.02068 0.00590 0.99258
 B987 B -0.00454 0.02012 0.99280
 B988 B 0.01078 0.01336 1.00772
 B989 B 0.00368 -0.00582 1.01671
 B990 B -0.01612 -0.01028 1.00732
 B991 B 0.00749 -0.00981 0.97923
 B992 B 0.01786 -0.00551 0.99897
 B993 B 0.00172 -0.01973 0.99876
 B994 B -0.01360 -0.01298 0.98383
 B995 B -0.00650 0.00620 0.97483
 B996 B 0.01329 0.01067 0.98423
 B997 B 0.48795 0.50943 0.51069
 B998 B 0.47768 0.50521 0.49087
 B999 B 0.49391 0.51933 0.49121
 B1000 B 0.50910 0.51247 0.50624
 B1001 B 0.50182 0.49334 0.51517
 B1002 B 0.48206 0.48899 0.50563
 B1003 B 0.50585 0.48933 0.47772
 B1004 B 0.51611 0.49356 0.49753
 B1005 B 0.49989 0.47944 0.49720
 B1006 B 0.48470 0.48629 0.48216
 B1007 B 0.49198 0.50543 0.47322
 B1008 B 0.51174 0.50978 0.48277
 B1009 B 0.51148 0.99269 0.50959
 B1010 B 0.52189 0.99669 0.48978
 B1011 B 0.50548 0.98279 0.49004
 B1012 B 0.49032 0.98991 0.50514
 B1013 B 0.49780 1.00898 0.51422
 B1014 B 0.51767 1.01302 0.50469
 B1015 B 0.49399 1.01289 0.47680
 B1016 B 0.48359 1.00887 0.49659
 B1017 B 0.49999 1.02278 0.49635
 B1018 B 0.51516 1.01567 0.48123
 B1019 B 0.50766 0.99659 0.47216
 B1020 B 0.48781 0.99254 0.48169
 B1021 B 0.00911 0.49309 1.01111
 B1022 B 0.01953 0.49711 0.99131
 B1023 B 0.00322 0.48309 0.99159
 B1024 B -0.01202 0.49015 1.00663
 B1025 B -0.00469 0.50931 1.01565
 B1026 B 0.01517 0.51346 1.00614
 B1027 B -0.00846 0.51307 0.97820
 B1028 B -0.01887 0.50904 0.99799
 B1029 B -0.00256 0.52306 0.99773
 B1030 B 0.01268 0.51601 0.98267
 B1031 B 0.00533 0.49685 0.97365
 B1032 B -0.01451 0.49269 0.98316
 B1033 B 0.00946 0.50918 0.48436
 B1034 B 0.02009 0.50529 0.50401
 B1035 B 0.00391 0.51956 0.50384
 B1036 B -0.01159 0.51252 0.48923
 B1037 B -0.00454 0.49311 0.48038
 B1038 B 0.01539 0.48880 0.48955
 B1039 B -0.00786 0.48996 0.51796
 B1040 B -0.01849 0.49386 0.49833
 B1041 B -0.00230 0.47960 0.49850
 B1042 B 0.01319 0.48663 0.51311
 B1043 B 0.00613 0.50603 0.52196
 B1044 B -0.01379 0.51035 0.51279
 B1045 B 0.51129 0.00890 -0.01489
 B1046 B 0.52164 0.00493 0.00491
 B1047 B 0.50544 0.01917 0.00455
 B1048 B 0.49016 0.01217 -0.01035
 B1049 B 0.49738 -0.00717 -0.01918
 B1050 B 0.51718 -0.01150 -0.00971
 B1051 B 0.49351 -0.01051 0.01832
 B1052 B 0.48317 -0.00655 -0.00147
 B1053 B 0.49938 -0.02077 -0.00111
 B1054 B 0.51464 -0.01378 0.01380
 B1055 B 0.50742 0.00556 0.02263
 B1056 B 0.48763 0.00989 0.01315
 B1057 B 0.48825 0.48985 -0.01420
 B1058 B 0.47806 0.49401 0.00576
 B1059 B 0.49432 0.47985 0.00517
 B1060 B 0.50943 0.48673 -0.01000
 B1061 B 0.50205 0.50593 -0.01875
 B1062 B 0.48231 0.51028 -0.00897
 B1063 B 0.50622 0.50975 0.01867
 B1064 B 0.51641 0.50558 -0.00127
 B1065 B 0.50015 0.51974 -0.00068
 B1066 B 0.48505 0.51287 0.01449
 B1067 B 0.49243 0.49368 0.02325
 B1068 B 0.51217 0.48932 0.01346
 B1069 B -0.01057 0.99004 0.48573
 B1070 B -0.02082 0.99445 0.50560
 B1071 B -0.00473 0.98008 0.50520
 B1072 B 0.01054 0.98668 0.49008
 B1073 B 0.00346 1.00592 0.48116
 B1074 B -0.01627 1.01058 0.49079
 B1075 B 0.00748 1.00991 0.51858
 B1076 B 0.01772 1.00549 0.49873
 B1077 B 0.00163 1.01986 0.49913
 B1078 B -0.01363 1.01327 0.51425
 B1079 B -0.00655 0.99403 0.52318
 B1080 B 0.01319 0.98937 0.51355
 B1081 B 0.76037 0.23833 0.23877
 B1082 B 0.75618 0.22800 0.25852
 B1083 B 0.77033 0.24420 0.25829
 B1084 B 0.76346 0.25946 0.24337
 B1085 B 0.74430 0.25224 0.23438
 B1086 B 0.73995 0.23245 0.24378
 B1087 B 0.74040 0.25616 0.27185
 B1088 B 0.74460 0.26648 0.25211
 B1089 B 0.73045 0.25028 0.25233
 B1090 B 0.73731 0.23503 0.26727
 B1091 B 0.75648 0.24224 0.27626
 B1092 B 0.76083 0.26203 0.26685
 B1093 B 0.74288 0.76083 0.73867
 B1094 B 0.74704 0.77150 0.75832
 B1095 B 0.73304 0.75518 0.75831
 B1096 B 0.73999 0.73975 0.74340
 B1097 B 0.75906 0.74699 0.73418
 B1098 B 0.76326 0.76697 0.74344
 B1099 B 0.76312 0.74369 0.77164
 B1100 B 0.75895 0.73302 0.75200
 B1101 B 0.77295 0.74936 0.75199
 B1102 B 0.76600 0.76478 0.76691
 B1103 B 0.74693 0.75753 0.77614
 B1104 B 0.74272 0.73756 0.76688
 B1105 B 0.25953 0.26073 0.76628
 B1106 B 0.25550 0.27109 0.74652
 B1107 B 0.26980 0.25494 0.74683
 B1108 B 0.26289 0.23961 0.76165
 B1109 B 0.24353 0.24673 0.77048
 B1110 B 0.23911 0.26654 0.76109
 B1111 B 0.24017 0.24291 0.73295
 B1112 B 0.24420 0.23254 0.75270
 B1113 B 0.22991 0.24870 0.75239
 B1114 B 0.23682 0.26402 0.73757
 B1115 B 0.25617 0.25690 0.72874
 B1116 B 0.26059 0.23710 0.73813
 B1117 B 0.23955 0.73820 0.26352
 B1118 B 0.24375 0.72774 0.24372
 B1119 B 0.22944 0.74389 0.24408
 B1120 B 0.23622 0.75929 0.25902
 B1121 B 0.25550 0.75223 0.26788
 B1122 B 0.26001 0.73238 0.25838
 B1123 B 0.25919 0.75586 0.23040
 B1124 B 0.25497 0.76632 0.25019
 B1125 B 0.26928 0.75017 0.24984
 B1126 B 0.26251 0.73478 0.23489
 B1127 B 0.24323 0.74184 0.22602
 B1128 B 0.23872 0.76169 0.23552
 B1129 B 0.25952 0.73826 0.73864
 B1130 B 0.25551 0.72805 0.75849
 B1131 B 0.26952 0.74436 0.75805
 B1132 B 0.26246 0.75945 0.74304
 B1133 B 0.24332 0.75202 0.73421
 B1134 B 0.23917 0.73225 0.74380
 B1135 B 0.23955 0.75618 0.77167
 B1136 B 0.24358 0.76639 0.75182
 B1137 B 0.22956 0.75007 0.75225
 B1138 B 0.23661 0.73499 0.76728
 B1139 B 0.25576 0.74242 0.77611
 B1140 B 0.25992 0.76218 0.76652
 B1141 B 0.24287 0.26040 0.23906
 B1142 B 0.24702 0.27112 0.25868
 B1143 B 0.23309 0.25474 0.25874
 B1144 B 0.24006 0.23932 0.24384
 B1145 B 0.25908 0.24661 0.23456
 B1146 B 0.26324 0.26662 0.24377
 B1147 B 0.26323 0.24338 0.27202
 B1148 B 0.25905 0.23267 0.25241
 B1149 B 0.27300 0.24905 0.25234
 B1150 B 0.26603 0.26448 0.26725
 B1151 B 0.24700 0.25718 0.27653
 B1152 B 0.24284 0.23718 0.26732
 B1153 B 0.76044 0.75995 0.26609
 B1154 B 0.75632 0.77031 0.24635
 B1155 B 0.77052 0.75406 0.24656
 B1156 B 0.76362 0.73881 0.26147
 B1157 B 0.74438 0.74607 0.27047
 B1158 B 0.74002 0.76590 0.26109
 B1159 B 0.74069 0.74222 0.23299
 B1160 B 0.74481 0.73186 0.25271
 B1161 B 0.73062 0.74811 0.25251
 B1162 B 0.73752 0.76336 0.23760
 B1163 B 0.75675 0.75608 0.22859
 B1164 B 0.76111 0.73627 0.23798
 B1165 B 0.73956 0.23713 0.76424
 B1166 B 0.74377 0.22677 0.74437
 B1167 B 0.72945 0.24290 0.74482
 B1168 B 0.73622 0.25824 0.75985
 B1169 B 0.75550 0.25114 0.76868
 B1170 B 0.76003 0.23134 0.75907
 B1171 B 0.75920 0.25497 0.73122
 B1172 B 0.75497 0.26533 0.75108
 B1173 B 0.76929 0.24919 0.75063
 B1174 B 0.76253 0.23386 0.73559
 B1175 B 0.74325 0.24096 0.72676
 B1176 B 0.73872 0.26076 0.73637
 C1177 C 0.40340 1.01875 0.31707
 C1178 C 0.41093 1.02303 0.33098
 C1179 C 0.41974 1.02750 0.34790
 C1180 C 0.43509 1.03701 0.34742
 C1181 C 0.44427 1.04011 0.36383
 C1182 C 0.43819 1.03369 0.38090
 C1183 C 0.42247 1.02459 0.38127
 C1184 C 0.41333 1.02153 0.36488
 C1185 C 0.44880 1.03508 0.39801
 C1186 C 0.44094 1.03763 0.41549
 C1187 C 0.45064 1.03624 0.43179
 C1188 C 0.46830 1.03242 0.43079
 C1189 C 0.47640 1.03078 0.41347
 C1190 C 0.46674 1.03214 0.39717
 C1191 C 0.47752 1.02760 0.44727
 C1192 C 0.48501 1.02209 0.46064
 H1193 H 0.44015 1.04171 0.33434
 H1194 H 0.45625 1.04729 0.36313
 H1195 H 0.41759 1.01920 0.39410
 H1196 H 0.40150 1.01409 0.36539
 H1197 H 0.42719 1.04013 0.41657
 H1198 H 0.44421 1.03738 0.44514
 H1199 H 0.49002 1.02757 0.41256
 H1200 H 0.47315 1.02987 0.38397
 C1201 C -0.09477 0.51907 0.81565
 C1202 C -0.08668 0.52339 0.82918
 C1203 C -0.07717 0.52794 0.84563
 C1204 C -0.06016 0.52212 0.84774
 C1205 C -0.05140 0.52507 0.86440
 C1206 C -0.05957 0.53386 0.87921
 C1207 C -0.07649 0.54014 0.87674
 C1208 C -0.08524 0.53717 0.86004
 C1209 C -0.05093 0.53512 0.89757
 C1210 C -0.06029 0.53182 0.91397
 C1211 C -0.05176 0.53043 0.93099
 C1212 C -0.03381 0.53241 0.93187
 C1213 C -0.02451 0.53657 0.91581
 C1214 C -0.03301 0.53799 0.89877
 C1215 C -0.02480 0.52761 0.94849
 C1216 C -0.01742 0.52216 0.96196
 H1217 H -0.05385 0.51486 0.83672
 H1218 H -0.03851 0.51981 0.86596
 H1219 H -0.08305 0.54708 0.88781
 H1220 H -0.09842 0.54170 0.85854
 H1221 H -0.07404 0.52932 0.91351
 H1222 H -0.05904 0.52696 0.94330
 H1223 H -0.01058 0.53798 0.91631
 H1224 H -0.02550 0.54076 0.88642
 C1225 C 0.09435 -0.01888 0.81594
 C1226 C 0.08624 -0.02255 0.82968
 C1227 C 0.07671 -0.02646 0.84630
 C1228 C 0.05980 -0.02034 0.84846
 C1229 C 0.05099 -0.02285 0.86520
 C1230 C 0.05901 -0.03150 0.88003
 C1231 C 0.07585 -0.03804 0.87754
 C1232 C 0.08464 -0.03552 0.86077
 C1233 C 0.05028 -0.03243 0.89840
 C1234 C 0.05960 -0.02905 0.91479
 C1235 C 0.05102 -0.02747 0.93183
 C1236 C 0.03306 -0.02933 0.93273
 C1237 C 0.02378 -0.03355 0.91668
 C1238 C 0.03234 -0.03516 0.89961
 C1239 C 0.02400 -0.02444 0.94940
 C1240 C 0.01656 -0.01893 0.96291
 H1241 H 0.05358 -0.01323 0.83739
 H1242 H 0.03816 -0.01739 0.86677
 H1243 H 0.08230 -0.04489 0.88864
 H1244 H 0.09775 -0.04030 0.85923
 H1245 H 0.07337 -0.02666 0.91431
 H1246 H 0.05828 -0.02396 0.94414
 H1247 H 0.00985 -0.03487 0.91720
 H1248 H 0.02486 -0.03800 0.88728
 C1249 C 0.59327 0.48064 0.31485
 C1250 C 0.58505 0.47693 0.32849
 C1251 C 0.57545 0.47295 0.34505
 C1252 C 0.55855 0.47912 0.34720
 C1253 C 0.54969 0.47655 0.36389
 C1254 C 0.55763 0.46778 0.37869
 C1255 C 0.57445 0.46118 0.37621
 C1256 C 0.58330 0.46378 0.35948
 C1257 C 0.54885 0.46678 0.39703
 C1258 C 0.55813 0.47004 0.41347
 C1259 C 0.54951 0.47159 0.43049
 C1260 C 0.53153 0.46980 0.43131
 C1261 C 0.52229 0.46568 0.41520
 C1262 C 0.53089 0.46412 0.39816
 C1263 C 0.52244 0.47468 0.44797
 C1264 C 0.51496 0.48018 0.46145
 H1265 H 0.55240 0.48633 0.33616
 H1266 H 0.53688 0.48205 0.36546
 H1267 H 0.58084 0.45425 0.38728
 H1268 H 0.59639 0.45895 0.35795
 H1269 H 0.57192 0.47238 0.41304
 H1270 H 0.55675 0.47502 0.44284
 H1271 H 0.50835 0.46443 0.41567
 H1272 H 0.52344 0.46137 0.38579
 C1273 C 0.59722 0.52006 0.17857
 C1274 C 0.58980 0.52387 0.16446
 C1275 C 0.58107 0.52770 0.14735
 C1276 C 0.58735 0.52071 0.13067
 C1277 C 0.57822 0.52312 0.11417
 C1278 C 0.56266 0.53258 0.11412
 C1279 C 0.55672 0.54001 0.13088
 C1280 C 0.56588 0.53756 0.14740
 C1281 C 0.55205 0.53335 0.09697
 C1282 C 0.53405 0.53093 0.09795
 C1283 C 0.52434 0.52907 0.08174
 C1284 C 0.53244 0.52967 0.06435
 C1285 C 0.55019 0.53293 0.06318
 C1286 C 0.55994 0.53483 0.07940
 C1287 C 0.52305 0.52453 0.04805
 C1288 C 0.51541 0.51890 0.03480
 H1289 H 0.59905 0.51298 0.13051
 H1290 H 0.58299 0.51696 0.10161
 H1291 H 0.54486 0.54748 0.13125
 H1292 H 0.56092 0.54303 0.16025
 H1293 H 0.52762 0.52948 0.11124
 H1294 H 0.51065 0.52631 0.08279
 H1295 H 0.55661 0.53328 0.04978
 H1296 H 0.57373 0.53691 0.07819
 C1297 C 0.09507 1.02103 0.68055
 C1298 C 0.08700 1.02494 0.66690
 C1299 C 0.07744 1.02892 0.65036
 C1300 C 0.06028 1.02351 0.64871
 C1301 C 0.05143 1.02580 0.63200
 C1302 C 0.05966 1.03352 0.61669
 C1303 C 0.07674 1.03944 0.61869
 C1304 C 0.08557 1.03712 0.63542
 C1305 C 0.05089 1.03400 0.59837
 C1306 C 0.06004 1.02956 0.58208
 C1307 C 0.05136 1.02752 0.56522
 C1308 C 0.03345 1.02995 0.56439
 C1309 C 0.02436 1.03520 0.58029
 C1310 C 0.03303 1.03728 0.59717
 C1311 C 0.02423 1.02473 0.54800
 C1312 C 0.01667 1.01906 0.53472
 H1313 H 0.05391 1.01703 0.66014
 H1314 H 0.03841 1.02083 0.63084
 H1315 H 0.08335 1.04557 0.60721
 H1316 H 0.09887 1.04133 0.63656
 H1317 H 0.07374 1.02672 0.58256
 H1318 H 0.05848 1.02324 0.55303
 H1319 H 0.01047 1.03699 0.57982
 H1320 H 0.02567 1.04093 0.60942
 C1321 C -0.09790 0.47952 0.67986
 C1322 C -0.09038 0.47628 0.66556
 C1323 C -0.08156 0.47297 0.64828
 C1324 C -0.08793 0.48014 0.63186
 C1325 C -0.07887 0.47796 0.61519
 C1326 C -0.06327 0.46856 0.61472
 C1327 C -0.05719 0.46102 0.63123
 C1328 C -0.06628 0.46323 0.64791
 C1329 C -0.05286 0.46780 0.59736
 C1330 C -0.03485 0.47019 0.59802
 C1331 C -0.02529 0.47183 0.58163
 C1332 C -0.03357 0.47104 0.56439
 C1333 C -0.05134 0.46786 0.56354
 C1334 C -0.06094 0.46619 0.57993
 C1335 C -0.02430 0.47583 0.54789
 C1336 C -0.01679 0.48118 0.53444
 H1337 H -0.09971 0.48776 0.63202
 H1338 H -0.08376 0.48418 0.60282
 H1339 H -0.04530 0.45359 0.63127
 H1340 H -0.06125 0.45761 0.66056
 H1341 H -0.02828 0.47172 0.61119
 H1342 H -0.01158 0.47453 0.58244
 H1343 H -0.05790 0.46737 0.55026
 H1344 H -0.07474 0.46413 0.57897
 C1345 C 0.40266 -0.02060 0.17964
 C1346 C 0.41031 -0.02384 0.16543
 C1347 C 0.41923 -0.02718 0.14821
 C1348 C 0.41298 -0.01996 0.13176
 C1349 C 0.42209 -0.02222 0.11514
 C1350 C 0.43762 -0.03174 0.11474
 C1351 C 0.44358 -0.03930 0.13128
 C1352 C 0.43443 -0.03702 0.14792
 C1353 C 0.44807 -0.03260 0.09742
 C1354 C 0.46610 -0.03036 0.09813
 C1355 C 0.47571 -0.02877 0.08176
 C1356 C 0.46747 -0.02947 0.06450
 C1357 C 0.44967 -0.03251 0.06360
 C1358 C 0.44003 -0.03413 0.07996
 C1359 C 0.47681 -0.02470 0.04804
 C1360 C 0.48440 -0.01936 0.03464
 H1361 H 0.40125 -0.01226 0.13185
 H1362 H 0.41730 -0.01596 0.10274
 H1363 H 0.45541 -0.04682 0.13138
 H1364 H 0.43936 -0.04269 0.16059
 H1365 H 0.47265 -0.02889 0.11132
 H1366 H 0.48945 -0.02618 0.08261
 H1367 H 0.44314 -0.03292 0.05030
 H1368 H 0.42621 -0.03608 0.07896
 C1369 C 0.31264 0.42673 0.01929
 C1370 C 0.32631 0.43406 0.02044
 C1371 C 0.34297 0.44219 0.02118
 C1372 C 0.35742 0.43256 0.02659
 C1373 C 0.37387 0.43991 0.02594
 C1374 C 0.37609 0.45700 0.01981
 C1375 C 0.36143 0.46670 0.01474
 C1376 C 0.34497 0.45931 0.01542
 C1377 C 0.39367 0.46440 0.01803
 C1378 C 0.39813 0.47433 0.00241
 C1379 C 0.41492 0.48062 0.00028
 C1380 C 0.42744 0.47711 0.01373
 C1381 C 0.42311 0.46742 0.02942
 C1382 C 0.40633 0.46110 0.03157
 C1383 C 0.44482 0.48313 0.01121
 C1384 C 0.45941 0.48803 0.00892
 H1385 H 0.35602 0.41924 0.03093
 H1386 H 0.38492 0.43204 0.02967
 H1387 H 0.36271 0.47995 0.01018
 H1388 H 0.33386 0.46685 0.01116
 H1389 H 0.38875 0.47687 -0.00839
 H1390 H 0.41819 0.48804 -0.01196
 H1391 H 0.43274 0.46465 0.03991
 H1392 H 0.40324 0.45364 0.04383
 C1393 C -0.18647 0.92781 0.51768
 C1394 C -0.17303 0.93555 0.51875
 C1395 C -0.15663 0.94420 0.51938
 C1396 C -0.14316 0.93730 0.52997
 C1397 C -0.12674 0.94473 0.52930
 C1398 C -0.12358 0.95915 0.51796
 C1399 C -0.13732 0.96623 0.50770
 C1400 C -0.15373 0.95878 0.50840
 C1401 C -0.10587 0.96627 0.51624
 C1402 C -0.09938 0.97114 0.49875
 C1403 C -0.08246 0.97716 0.49696
 C1404 C -0.07183 0.97840 0.51260
 C1405 C -0.07820 0.97376 0.53008
 C1406 C -0.09512 0.96772 0.53191
 C1407 C -0.05429 0.98411 0.51057
 C1408 C -0.03958 0.98875 0.50859
 H1409 H -0.14524 0.92591 0.53838
 H1410 H -0.11638 0.93884 0.53716
 H1411 H -0.13533 0.97746 0.49903
 H1412 H -0.16407 0.96418 0.50010
 H1413 H -0.10724 0.96991 0.48639
 H1414 H -0.07760 0.98065 0.48335
 H1415 H -0.07005 0.97470 0.54227
 H1416 H -0.09982 0.96423 0.54557
 C1417 C -0.18551 0.07505 0.98453
 C1418 C -0.17225 0.06715 0.98213
 C1419 C -0.15602 0.05821 0.98031
 C1420 C -0.15361 0.04226 0.98902
 C1421 C -0.13728 0.03450 0.98914
 C1422 C -0.12313 0.04265 0.98057
 C1423 C -0.12580 0.05842 0.97135
 C1424 C -0.14215 0.06616 0.97127
 C1425 C -0.10549 0.03522 0.98210
 C1426 C -0.09400 0.03563 0.96692
 C1427 C -0.07713 0.02934 0.96872
 C1428 C -0.07157 0.02259 0.98569
 C1429 C -0.08294 0.02199 1.00081
 C1430 C -0.09980 0.02824 0.99904
 C1431 C -0.05409 0.01664 0.98777
 C1432 C -0.03942 0.01181 0.98975
 H1433 H -0.16425 0.03604 0.99614
 H1434 H -0.13566 0.02225 0.99613
 H1435 H -0.11513 0.06511 0.96484
 H1436 H -0.14384 0.07860 0.96465
 H1437 H -0.09806 0.04079 0.95366
 H1438 H -0.06840 0.02986 0.95693
 H1439 H -0.07871 0.01687 1.01404
 H1440 H -0.10825 0.02802 1.01107
 C1441 C 0.31342 0.57558 0.48274
 C1442 C 0.32668 0.56769 0.48025
 C1443 C 0.34288 0.55872 0.47831
 C1444 C 0.35700 0.56702 0.47012
 C1445 C 0.37328 0.55915 0.47013
 C1446 C 0.37564 0.54289 0.47843
 C1447 C 0.36125 0.53442 0.48613
 C1448 C 0.34498 0.54232 0.48609
 C1449 C 0.39318 0.53525 0.47993
 C1450 C 0.39846 0.52735 0.49656
 C1451 C 0.41525 0.52092 0.49838
 C1452 C 0.42696 0.52226 0.48362
 C1453 C 0.42181 0.52991 0.46695
 C1454 C 0.40501 0.53638 0.46510
 C1455 C 0.44438 0.51618 0.48582
 C1456 C 0.45901 0.51124 0.48789
 H1457 H 0.35554 0.57980 0.46422
 H1458 H 0.38413 0.56608 0.46430
 H1459 H 0.36263 0.52181 0.49241
 H1460 H 0.33415 0.53582 0.49255
 H1461 H 0.38975 0.52655 0.50833
 H1462 H 0.41917 0.51510 0.51138
 H1463 H 0.43080 0.53101 0.45545
 H1464 H 0.40127 0.54225 0.45209
 C1465 C 0.18514 0.57363 0.51606
 C1466 C 0.17172 0.56585 0.51699
 C1467 C 0.15537 0.55709 0.51744
 C1468 C 0.14182 0.56375 0.52825
 C1469 C 0.12547 0.55619 0.52745
 C1470 C 0.12245 0.54188 0.51575
 C1471 C 0.13626 0.53504 0.50525
 C1472 C 0.15261 0.54262 0.50608
 C1473 C 0.10483 0.53458 0.51397
 C1474 C 0.09837 0.52982 0.49641
 C1475 C 0.08154 0.52358 0.49459
 C1476 C 0.07096 0.52201 0.51028
 C1477 C 0.07729 0.52655 0.52783
 C1478 C 0.09413 0.53280 0.52968
 C1479 C 0.05350 0.51605 0.50829
 C1480 C 0.03884 0.51120 0.50651
 H1481 H 0.14379 0.57505 0.53697
 H1482 H 0.11505 0.56188 0.53552
 H1483 H 0.13439 0.52390 0.49630
 H1484 H 0.16301 0.53741 0.49761
 H1485 H 0.10620 0.53129 0.48402
 H1486 H 0.07671 0.52017 0.48093
 H1487 H 0.06918 0.52535 0.54006
 H1488 H 0.09880 0.53619 0.54340
 C1489 C 0.68684 0.07276 0.01732
 C1490 C 0.67339 0.06503 0.01837
 C1491 C 0.65700 0.05635 0.01894
 C1492 C 0.65430 0.04157 0.00804
 C1493 C 0.63792 0.03405 0.00726
 C1494 C 0.62403 0.04126 0.01734
 C1495 C 0.62699 0.05588 0.02860
 C1496 C 0.64338 0.06339 0.02935
 C1497 C 0.60638 0.03402 0.01555
 C1498 C 0.59546 0.03276 0.03115
 C1499 C 0.57860 0.02656 0.02925
 C1500 C 0.57247 0.02156 0.01175
 C1501 C 0.58326 0.02263 -0.00382
 C1502 C 0.60012 0.02881 -0.00195
 C1503 C 0.55501 0.01565 0.00967
 C1504 C 0.54035 0.01084 0.00772
 H1505 H 0.66476 0.03606 -0.00012
 H1506 H 0.63607 0.02267 -0.00134
 H1507 H 0.61651 0.06187 0.03633
 H1508 H 0.64531 0.07493 0.03770
 H1509 H 0.59997 0.03651 0.04482
 H1510 H 0.57033 0.02575 0.04139
 H1511 H 0.57859 0.01887 -0.01744
 H1512 H 0.60811 0.02989 -0.01427
 C1513 C 0.68568 0.92500 0.48325
 C1514 C 0.67248 0.93287 0.48051
 C1515 C 0.65633 0.94184 0.47828
 C1516 C 0.64343 0.93484 0.46695
 C1517 C 0.62706 0.94250 0.46644
 C1518 C 0.62338 0.95724 0.47733
 C1519 C 0.63661 0.96447 0.48824
 C1520 C 0.65296 0.95679 0.48873
 C1521 C 0.60562 0.96449 0.47812
 C1522 C 0.60289 0.98248 0.47881
 C1523 C 0.58618 0.98921 0.48062
 C1524 C 0.57202 0.97805 0.48175
 C1525 C 0.57457 0.96016 0.48082
 C1526 C 0.59125 0.95341 0.47901
 C1527 C 0.55489 0.98487 0.48432
 C1528 C 0.54045 0.99029 0.48665
 H1529 H 0.64589 0.92322 0.45887
 H1530 H 0.61720 0.93677 0.45773
 H1531 H 0.63412 0.97567 0.49696
 H1532 H 0.66282 0.96221 0.49769
 H1533 H 0.61368 0.99133 0.47798
 H1534 H 0.58431 1.00309 0.48130
 H1535 H 0.56368 0.95142 0.48176
 H1536 H 0.59294 0.93950 0.47881
 C1537 C 0.18398 0.42680 0.98556
 C1538 C 0.17076 0.43466 0.98291
 C1539 C 0.15456 0.44355 0.98070
 C1540 C 0.14191 0.43676 0.96889
 C1541 C 0.12548 0.44429 0.96832
 C1542 C 0.12149 0.45868 0.97962
 C1543 C 0.13446 0.46571 0.99103
 C1544 C 0.15088 0.45816 0.99158
 C1545 C 0.10365 0.46576 0.98028
 C1546 C 0.10076 0.48371 0.98149
 C1547 C 0.08396 0.49025 0.98316
 C1548 C 0.06988 0.47896 0.98363
 C1549 C 0.07260 0.46112 0.98219
 C1550 C 0.08937 0.45454 0.98051
 C1551 C 0.05266 0.48557 0.98605
 C1552 C 0.03815 0.49085 0.98827
 H1553 H 0.14461 0.42541 0.96047
 H1554 H 0.11582 0.43873 0.95923
 H1555 H 0.13173 0.47662 1.00006
 H1556 H 0.16053 0.46340 1.00090
 H1557 H 0.11149 0.49266 0.98117
 H1558 H 0.08197 0.50409 0.98424
 H1559 H 0.06177 0.45227 0.98262
 H1560 H 0.09118 0.44066 0.97991
 C1561 C -0.00356 0.31444 0.42433
 C1562 C -0.00435 0.32776 0.43313
 C1563 C -0.00525 0.34383 0.44335
 C1564 C -0.02129 0.35074 0.44862
 C1565 C -0.02218 0.36669 0.45789
 C1566 C -0.00702 0.37595 0.46201
 C1567 C 0.00904 0.36877 0.45685
 C1568 C 0.00991 0.35284 0.44759
 C1569 C -0.00792 0.39334 0.47096
 C1570 C 0.00446 0.39840 0.48420
 C1571 C 0.00443 0.41522 0.49146
 C1572 C -0.00800 0.42720 0.48567
 C1573 C -0.02068 0.42215 0.47292
 C1574 C -0.02068 0.40534 0.46564
 C1575 C -0.00678 0.44503 0.49139
 C1576 C -0.00520 0.46014 0.49525
 H1577 H -0.03311 0.34389 0.44542
 H1578 H -0.03473 0.37176 0.46183
 H1579 H 0.02094 0.37567 0.45953
 H1580 H 0.02239 0.34767 0.44349
 H1581 H 0.01431 0.38942 0.48877
 H1582 H 0.01437 0.41901 0.50124
 H1583 H -0.03026 0.43136 0.46817
 H1584 H -0.03026 0.40195 0.45531
 C1585 C 0.49563 -0.18508 -0.07751
 C1586 C 0.49471 -0.17172 -0.06880
 C1587 C 0.49360 -0.15559 -0.05871
 C1588 C 0.48510 -0.14144 -0.06660
 C1589 C 0.48445 -0.12559 -0.05716
 C1590 C 0.49231 -0.12366 -0.03965
 C1591 C 0.50065 -0.13804 -0.03172
 C1592 C 0.50128 -0.15389 -0.04120
 C1593 C 0.49240 -0.10652 -0.03012
 C1594 C 0.50739 -0.10059 -0.02109
 C1595 C 0.50795 -0.08395 -0.01341
 C1596 C 0.49355 -0.07302 -0.01455
 C1597 C 0.47842 -0.07895 -0.02304
 C1598 C 0.47782 -0.09560 -0.03074
 C1599 C 0.49489 -0.05527 -0.00858
 C1600 C 0.49651 -0.04020 -0.00454
 H1601 H 0.47917 -0.14258 -0.08017
 H1602 H 0.47818 -0.11473 -0.06380
 H1603 H 0.50666 -0.13703 -0.01819
 H1604 H 0.50787 -0.16476 -0.03493
 H1605 H 0.51891 -0.10855 -0.02059
 H1606 H 0.51981 -0.07943 -0.00706
 H1607 H 0.46722 -0.07057 -0.02411
 H1608 H 0.46602 -0.09985 -0.03737
 C1609 C 0.00415 -0.18236 1.07724
 C1610 C 0.00536 -0.16920 1.06840
 C1611 C 0.00676 -0.15330 1.05814
 C1612 C -0.00020 -0.15202 1.04025
 C1613 C 0.00065 -0.13638 1.03059
 C1614 C 0.00849 -0.12178 1.03870
 C1615 C 0.01565 -0.12328 1.05659
 C1616 C 0.01478 -0.13891 1.06622
 C1617 C 0.00859 -0.10486 1.02893
 C1618 C 0.02301 -0.09383 1.03005
 C1619 C 0.02254 -0.07738 1.02207
 C1620 C 0.00769 -0.07172 1.01282
 C1621 C -0.00653 -0.08277 1.01117
 C1622 C -0.00608 -0.09922 1.01913
 C1623 C 0.00636 -0.05409 1.00660
 C1624 C 0.00470 -0.03911 1.00237
 H1625 H -0.00641 -0.16307 1.03383
 H1626 H -0.00482 -0.13572 1.01678
 H1627 H 0.02152 -0.11224 1.06337
 H1628 H 0.02015 -0.13972 1.08008
 H1629 H 0.03459 -0.09786 1.03728
 H1630 H 0.03359 -0.06891 1.02352
 H1631 H -0.01817 -0.07847 1.00423
 H1632 H -0.01748 -0.10726 1.01822
 C1633 C 0.50406 0.31701 0.57633
 C1634 C 0.50504 0.33015 0.56742
 C1635 C 0.50614 0.34603 0.55706
 C1636 C 0.49868 0.34726 0.53941
 C1637 C 0.49924 0.36288 0.52968
 C1638 C 0.50729 0.37751 0.53750
 C1639 C 0.51494 0.37605 0.55516
 C1640 C 0.51435 0.36044 0.56485
 C1641 C 0.50714 0.39440 0.52767
 C1642 C 0.52160 0.40541 0.52831
 C1643 C 0.52094 0.42184 0.52027
 C1644 C 0.50586 0.42748 0.51143
 C1645 C 0.49159 0.41645 0.51028
 C1646 C 0.49222 0.40003 0.51829
 C1647 C 0.50444 0.44508 0.50513
 C1648 C 0.50277 0.46005 0.50085
 H1649 H 0.49231 0.33619 0.53321
 H1650 H 0.49339 0.36351 0.51605
 H1651 H 0.52099 0.38711 0.56171
 H1652 H 0.52011 0.35967 0.57853
 H1653 H 0.53336 0.40139 0.53519
 H1654 H 0.53204 0.43029 0.52135
 H1655 H 0.47978 0.42075 0.50366
 H1656 H 0.48079 0.39200 0.51775
 C1657 C 0.49542 1.18577 0.57650
 C1658 C 0.49471 1.17255 0.56752
 C1659 C 0.49386 1.15661 0.55706
 C1660 C 0.48482 1.14248 0.56424
 C1661 C 0.48440 1.12681 0.55444
 C1662 C 0.49304 1.12502 0.53729
 C1663 C 0.50194 1.13936 0.53008
 C1664 C 0.50233 1.15504 0.53990
 C1665 C 0.49329 1.10806 0.52738
 C1666 C 0.50857 1.10196 0.51888
 C1667 C 0.50920 1.08549 0.51078
 C1668 C 0.49457 1.07488 0.51097
 C1669 C 0.47918 1.08098 0.51894
 C1670 C 0.47852 1.09746 0.52705
 C1671 C 0.49585 1.05723 0.50454
 C1672 C 0.49735 1.04222 0.50015
 H1673 H 0.47826 1.14351 0.57753
 H1674 H 0.47767 1.11597 0.56054
 H1675 H 0.50856 1.13848 0.51683
 H1676 H 0.50934 1.16589 0.53418
 H1677 H 0.52023 1.10967 0.51910
 H1678 H 0.52124 1.08083 0.50485
 H1679 H 0.46781 1.07285 0.51927
 H1680 H 0.46651 1.10185 0.53325
 C1681 C -0.00487 0.68644 1.07674
 C1682 C -0.00546 0.67328 1.06766
 C1683 C -0.00610 0.65742 1.05704
 C1684 C 0.00912 0.64822 1.05325
 C1685 C 0.00849 0.63253 1.04351
 C1686 C -0.00741 0.62577 1.03742
 C1687 C -0.02263 0.63522 1.04111
 C1688 C -0.02196 0.65092 1.05085
 C1689 C -0.00810 0.60863 1.02791
 C1690 C -0.02125 0.59676 1.03224
 C1691 C -0.02117 0.58016 1.02439
 C1692 C -0.00801 0.57521 1.01206
 C1693 C 0.00485 0.58707 1.00727
 C1694 C 0.00480 0.60368 1.01510
 C1695 C -0.00681 0.55753 1.00575
 C1696 C -0.00530 0.54250 1.00144
 H1697 H 0.02147 0.65307 1.05803
 H1698 H 0.02041 0.62547 1.04118
 H1699 H -0.03504 0.63048 1.03645
 H1700 H -0.03384 0.65793 1.05368
 H1701 H -0.03124 0.60006 1.04222
 H1702 H -0.03109 0.57103 1.02838
 H1703 H 0.01517 0.58335 0.99783
 H1704 H 0.01497 0.61257 1.01128
 C1705 C 0.50559 0.68331 -0.07690
 C1706 C 0.50650 0.67009 -0.06812
 C1707 C 0.50750 0.65408 -0.05800
 C1708 C 0.51602 0.63981 -0.06585
 C1709 C 0.51645 0.62403 -0.05645
 C1710 C 0.50832 0.62228 -0.03903
 C1711 C 0.49999 0.63679 -0.03113
 C1712 C 0.49959 0.65256 -0.04056
 C1713 C 0.50795 0.60521 -0.02958
 C1714 C 0.49277 0.59946 -0.02077
 C1715 C 0.49195 0.58289 -0.01315
 C1716 C 0.50628 0.57184 -0.01414
 C1717 C 0.52160 0.57759 -0.02242
 C1718 C 0.52245 0.59417 -0.03006
 C1719 C 0.50474 0.55415 -0.00821
 C1720 C 0.50300 0.53914 -0.00417
 H1721 H 0.52213 0.64079 -0.07937
 H1722 H 0.52274 0.61308 -0.06306
 H1723 H 0.49377 0.63593 -0.01767
 H1724 H 0.49297 0.66353 -0.03433
 H1725 H 0.48130 0.60752 -0.02038
 H1726 H 0.47997 0.57851 -0.00696
 H1727 H 0.53276 0.56912 -0.02336
 H1728 H 0.53440 0.59828 -0.03652
 C1729 C 0.00602 1.18356 0.42314
 C1730 C 0.00708 1.17029 0.43183
 C1731 C 0.00828 1.15423 0.44184
 C1732 C 0.00106 1.15275 0.45962
 C1733 C 0.00167 1.13694 0.46898
 C1734 C 0.00951 1.12237 0.46065
 C1735 C 0.01694 1.12408 0.44288
 C1736 C 0.01631 1.13989 0.43356
 C1737 C 0.00933 1.10528 0.47006
 C1738 C 0.02367 1.09407 0.46885
 C1739 C 0.02295 1.07748 0.47648
 C1740 C 0.00793 1.07188 0.48548
 C1741 C -0.00623 1.08309 0.48718
 C1742 C -0.00554 1.09968 0.47957
 C1743 C 0.00643 1.05420 0.49145
 C1744 C 0.00467 1.03921 0.49554
 H1745 H -0.00516 1.16378 0.46620
 H1746 H -0.00400 1.13611 0.48272
 H1747 H 0.02283 1.11308 0.43594
 H1748 H 0.02188 1.14085 0.41977
 H1749 H 0.03538 1.09806 0.46183
 H1750 H 0.03396 1.06888 0.47498
 H1751 H -0.01800 1.07883 0.49393
 H1752 H -0.01689 1.10786 0.48053
 C1753 C 0.77021 0.65831 0.93418
 C1754 C 0.77459 0.66636 0.92068
 C1755 C 0.77919 0.67585 0.90428
 C1756 C 0.78845 0.66776 0.88992
 C1757 C 0.79140 0.67646 0.87322
 C1758 C 0.78506 0.69335 0.87070
 C1759 C 0.77627 0.70156 0.88548
 C1760 C 0.77335 0.69285 0.90214
 C1761 C 0.78618 0.70189 0.85230
 C1762 C 0.78889 0.71983 0.85103
 C1763 C 0.78726 0.72823 0.83397
 C1764 C 0.78303 0.71879 0.81797
 C1765 C 0.78124 0.70083 0.81891
 C1766 C 0.78284 0.69241 0.83595
 C1767 C 0.77801 0.72767 0.80136
 C1768 C 0.77238 0.73493 0.78790
 H1769 H 0.79302 0.65459 0.89144
 H1770 H 0.79835 0.66987 0.86217
 H1771 H 0.77096 0.71443 0.88389
 H1772 H 0.76607 0.69918 0.91313
 H1773 H 0.79169 0.72744 0.86333
 H1774 H 0.78853 0.74216 0.83341
 H1775 H 0.77773 0.69344 0.80666
 H1776 H 0.78045 0.67863 0.83647
 C1777 C 0.27101 0.15811 0.43463
 C1778 C 0.27531 0.16625 0.42117
 C1779 C 0.27980 0.17580 0.40478
 C1780 C 0.28922 0.16784 0.39045
 C1781 C 0.29206 0.17657 0.37375
 C1782 C 0.28546 0.19336 0.37119
 C1783 C 0.27651 0.20144 0.38594
 C1784 C 0.27370 0.19270 0.40260
 C1785 C 0.28651 0.20189 0.35279
 C1786 C 0.28897 0.21986 0.35151
 C1787 C 0.28729 0.22822 0.33443
 C1788 C 0.28326 0.21871 0.31843
 C1789 C 0.28169 0.20073 0.31938
 C1790 C 0.28335 0.19234 0.33644
 C1791 C 0.27820 0.22751 0.30178
 C1792 C 0.27254 0.23469 0.28829
 H1793 H 0.29398 0.15474 0.39200
 H1794 H 0.29914 0.17007 0.36272
 H1795 H 0.27100 0.21422 0.38431
 H1796 H 0.26628 0.19893 0.41356
 H1797 H 0.29163 0.22752 0.36382
 H1798 H 0.28838 0.24217 0.33387
 H1799 H 0.27833 0.19328 0.30712
 H1800 H 0.28114 0.17854 0.33697
 C1801 C 0.73104 0.34348 0.43528
 C1802 C 0.72753 0.33533 0.42148
 C1803 C 0.72376 0.32577 0.40479
 C1804 C 0.71470 0.33364 0.39029
 C1805 C 0.71224 0.32479 0.37350
 C1806 C 0.71884 0.30797 0.37103
 C1807 C 0.72752 0.30002 0.38589
 C1808 C 0.72997 0.30888 0.40265
 C1809 C 0.71792 0.29917 0.35266
 C1810 C 0.71523 0.28121 0.35146
 C1811 C 0.71681 0.27260 0.33441
 C1812 C 0.72096 0.28184 0.31835
 C1813 C 0.72280 0.29981 0.31923
 C1814 C 0.72124 0.30845 0.33627
 C1815 C 0.72582 0.27273 0.30168
 C1816 C 0.73130 0.26525 0.28817
 H1817 H 0.70984 0.34672 0.39183
 H1818 H 0.70537 0.33119 0.36238
 H1819 H 0.73302 0.28720 0.38434
 H1820 H 0.73708 0.30271 0.41375
 H1821 H 0.71243 0.27376 0.36380
 H1822 H 0.71551 0.25866 0.33389
 H1823 H 0.72626 0.30704 0.30692
 H1824 H 0.72361 0.32223 0.33675
 C1825 C 0.23081 0.84354 0.93492
 C1826 C 0.22710 0.83533 0.92123
 C1827 C 0.22314 0.82573 0.90462
 C1828 C 0.22928 0.80881 0.90245
 C1829 C 0.22673 0.79995 0.88572
 C1830 C 0.21802 0.80792 0.87089
 C1831 C 0.21146 0.82476 0.87339
 C1832 C 0.21402 0.83361 0.89016
 C1833 C 0.21706 0.79915 0.85251
 C1834 C 0.22039 0.80845 0.83613
 C1835 C 0.22194 0.79983 0.81908
 C1836 C 0.22009 0.78186 0.81816
 C1837 C 0.21592 0.77261 0.83420
 C1838 C 0.21435 0.78120 0.85128
 C1839 C 0.22496 0.77277 0.80148
 C1840 C 0.23045 0.76529 0.78797
 H1841 H 0.23644 0.80264 0.91352
 H1842 H 0.23220 0.78712 0.88414
 H1843 H 0.20457 0.83117 0.86230
 H1844 H 0.20923 0.84671 0.89170
 H1845 H 0.22276 0.82223 0.83663
 H1846 H 0.22541 0.80708 0.80678
 H1847 H 0.21461 0.75867 0.83367
 H1848 H 0.21155 0.77373 0.86360
 C1849 C 0.26922 0.84725 0.07086
 C1850 C 0.27303 0.83966 0.08485
 C1851 C 0.27688 0.83073 0.10182
 C1852 C 0.27059 0.83725 0.11870
 C1853 C 0.27298 0.82797 0.13509
 C1854 C 0.28172 0.81199 0.13481
 C1855 C 0.28847 0.80578 0.11784
 C1856 C 0.28604 0.81510 0.10144
 C1857 C 0.28243 0.80129 0.15186
 C1858 C 0.27914 0.78343 0.15083
 C1859 C 0.27730 0.77372 0.16703
 C1860 C 0.27879 0.78170 0.18444
 C1861 C 0.28289 0.79928 0.18564
 C1862 C 0.28476 0.80902 0.16944
 C1863 C 0.27376 0.77244 0.20082
 C1864 C 0.26821 0.76491 0.21414
 H1865 H 0.26340 0.84930 0.11913
 H1866 H 0.26736 0.83298 0.14783
 H1867 H 0.29539 0.79359 0.11721
 H1868 H 0.29098 0.80994 0.08843
 H1869 H 0.27702 0.77713 0.13756
 H1870 H 0.27390 0.76017 0.16596
 H1871 H 0.28394 0.80561 0.19906
 H1872 H 0.28750 0.82270 0.17068
 C1873 C 0.76827 0.34628 0.57173
 C1874 C 0.77222 0.33873 0.58570
 C1875 C 0.77622 0.32984 0.60265
 C1876 C 0.76994 0.33633 0.61956
 C1877 C 0.77248 0.32708 0.63594
 C1878 C 0.78135 0.31117 0.63564
 C1879 C 0.78809 0.30500 0.61865
 C1880 C 0.78551 0.31429 0.60225
 C1881 C 0.78219 0.30049 0.65270
 C1882 C 0.77904 0.28260 0.65169
 C1883 C 0.77729 0.27290 0.66790
 C1884 C 0.77873 0.28091 0.68530
 C1885 C 0.78271 0.29852 0.68647
 C1886 C 0.78450 0.30825 0.67027
 C1887 C 0.77374 0.27164 0.70169
 C1888 C 0.76821 0.26408 0.71501
 H1889 H 0.76265 0.34831 0.62001
 H1890 H 0.76686 0.33205 0.64871
 H1891 H 0.79510 0.29288 0.61800
 H1892 H 0.79044 0.30916 0.58922
 H1893 H 0.77695 0.27627 0.63843
 H1894 H 0.77397 0.25933 0.66686
 H1895 H 0.78373 0.30487 0.69989
 H1896 H 0.78715 0.32195 0.67148
 C1897 C 0.23041 0.15315 0.57084
 C1898 C 0.22698 0.16056 0.58516
 C1899 C 0.22342 0.16928 0.60246
 C1900 C 0.21373 0.18459 0.60277
 C1901 C 0.21135 0.19364 0.61949
 C1902 C 0.21867 0.18746 0.63607
 C1903 C 0.22799 0.17181 0.63565
 C1904 C 0.23034 0.16281 0.61895
 C1905 C 0.21783 0.19787 0.65346
 C1906 C 0.21604 0.18978 0.67084
 C1907 C 0.21772 0.19934 0.68729
 C1908 C 0.22108 0.21709 0.68655
 C1909 C 0.22203 0.22538 0.66935
 C1910 C 0.22038 0.21586 0.65291
 C1911 C 0.22592 0.22629 0.70311
 C1912 C 0.23131 0.23382 0.71658
 H1913 H 0.20829 0.18970 0.59007
 H1914 H 0.20398 0.20556 0.61940
 H1915 H 0.23405 0.16686 0.64809
 H1916 H 0.23793 0.15101 0.61884
 H1917 H 0.21386 0.17599 0.67171
 H1918 H 0.21710 0.19277 0.70053
 H1919 H 0.22486 0.23908 0.66864
 H1920 H 0.22205 0.22244 0.63978
 C1921 C 0.72918 0.65626 0.06883
 C1922 C 0.72572 0.66419 0.08283
 C1923 C 0.72213 0.67356 0.09972
 C1924 C 0.72793 0.69057 0.10176
 C1925 C 0.72577 0.69926 0.11868
 C1926 C 0.71779 0.69102 0.13383
 C1927 C 0.71155 0.67408 0.13147
 C1928 C 0.71373 0.66541 0.11451
 C1929 C 0.71725 0.69965 0.15231
 C1930 C 0.72133 0.69030 0.16845
 C1931 C 0.72323 0.69882 0.18549
 C1932 C 0.72100 0.71675 0.18665
 C1933 C 0.71611 0.72605 0.17088
 C1934 C 0.71418 0.71755 0.15381
 C1935 C 0.72606 0.72578 0.20324
 C1936 C 0.73163 0.73320 0.21669
 H1937 H 0.73454 0.69696 0.09043
 H1938 H 0.73099 0.71217 0.12012
 H1939 H 0.70521 0.66747 0.14282
 H1940 H 0.70919 0.65223 0.11307
 H1941 H 0.72400 0.67656 0.16773
 H1942 H 0.72724 0.69154 0.19757
 H1943 H 0.71449 0.73995 0.17160
 H1944 H 0.71080 0.72505 0.14169
 C1945 C 0.17568 0.56246 0.23191
 C1946 C 0.18347 0.57588 0.23096
 C1947 C 0.19221 0.59224 0.23043
 C1948 C 0.20674 0.59508 0.24156
 C1949 C 0.21435 0.61143 0.24225
 C1950 C 0.20747 0.62517 0.23185
 C1951 C 0.19309 0.62207 0.22039
 C1952 C 0.18550 0.60572 0.21972
 C1953 C 0.21479 0.64282 0.23351
 C1954 C 0.21645 0.65342 0.21778
 C1955 C 0.22266 0.67030 0.21955
 C1956 C 0.22728 0.67677 0.23704
 C1957 C 0.22583 0.66629 0.25273
 C1958 C 0.21964 0.64941 0.25100
 C1959 C 0.23316 0.69428 0.23900
 C1960 C 0.23793 0.70897 0.24089
 H1961 H 0.21199 0.58474 0.24995
 H1962 H 0.22554 0.61337 0.25102
 H1963 H 0.18736 0.63243 0.21241
 H1964 H 0.17416 0.60369 0.21120
 H1965 H 0.21298 0.64864 0.20411
 H1966 H 0.22375 0.67833 0.20731
 H1967 H 0.22930 0.67122 0.26634
 H1968 H 0.21826 0.64166 0.26340
 C1969 C 0.67558 0.06160 0.73198
 C1970 C 0.68340 0.07501 0.73097
 C1971 C 0.69215 0.09136 0.73041
 C1972 C 0.70689 0.09407 0.74125
 C1973 C 0.71451 0.11042 0.74201
 C1974 C 0.70743 0.12428 0.73196
 C1975 C 0.69283 0.12131 0.72077
 C1976 C 0.68524 0.10496 0.72003
 C1977 C 0.71477 0.14191 0.73370
 C1978 C 0.71612 0.15270 0.71809
 C1979 C 0.72238 0.16955 0.71995
 C1980 C 0.72734 0.17582 0.73741
 C1981 C 0.72620 0.16514 0.75299
 C1982 C 0.71997 0.14829 0.75117
 C1983 C 0.73322 0.19331 0.73948
 C1984 C 0.73798 0.20801 0.74145
 H1985 H 0.71230 0.08363 0.74938
 H1986 H 0.72585 0.11226 0.75056
 H1987 H 0.68695 0.13177 0.71307
 H1988 H 0.67374 0.10302 0.71173
 H1989 H 0.71238 0.14809 0.70445
 H1990 H 0.72323 0.17773 0.70780
 H1991 H 0.72995 0.16991 0.76658
 H1992 H 0.71882 0.14040 0.76349
 C1993 C 0.82623 0.06350 0.26603
 C1994 C 0.81830 0.07674 0.26849
 C1995 C 0.80932 0.09295 0.27041
 C1996 C 0.79315 0.09519 0.26210
 C1997 C 0.78530 0.11148 0.26207
 C1998 C 0.79358 0.12576 0.27029
 C1999 C 0.80960 0.12326 0.27911
 C2000 C 0.81743 0.10695 0.27912
 C2001 C 0.78602 0.14334 0.26885
 C2002 C 0.78677 0.15498 0.28393
 C2003 C 0.78036 0.17181 0.28218
 C2004 C 0.77313 0.17719 0.26536
 C2005 C 0.77217 0.16567 0.25035
 C2006 C 0.77856 0.14885 0.25207
 C2007 C 0.76709 0.19464 0.26331
 C2008 C 0.76218 0.20929 0.26135
 H2009 H 0.78681 0.08444 0.25525
 H2010 H 0.77286 0.11297 0.25539
 H2011 H 0.81639 0.13403 0.28536
 H2012 H 0.83003 0.10539 0.28542
 H2013 H 0.79231 0.15106 0.29706
 H2014 H 0.78115 0.18065 0.29388
 H2015 H 0.76669 0.16976 0.23724
 H2016 H 0.77806 0.14029 0.24012
 C2017 C 0.32693 0.56416 0.76728
 C2018 C 0.31920 0.57751 0.76983
 C2019 C 0.31041 0.59381 0.77184
 C2020 C 0.29322 0.59550 0.76612
 C2021 C 0.28529 0.61175 0.76608
 C2022 C 0.29449 0.62654 0.77171
 C2023 C 0.31160 0.62462 0.77796
 C2024 C 0.31951 0.60836 0.77797
 C2025 C 0.28663 0.64400 0.77016
 C2026 C 0.28948 0.65664 0.78394
 C2027 C 0.28279 0.67333 0.78193
 C2028 C 0.27318 0.67757 0.76614
 C2029 C 0.27012 0.66505 0.75246
 C2030 C 0.27678 0.64836 0.75445
 C2031 C 0.26685 0.69488 0.76372
 C2032 C 0.26172 0.70943 0.76152
 H2033 H 0.28609 0.58432 0.76125
 H2034 H 0.27203 0.61280 0.76143
 H2035 H 0.31910 0.63577 0.78214
 H2036 H 0.33288 0.60721 0.78225
 H2037 H 0.29688 0.65362 0.79627
 H2038 H 0.28523 0.68296 0.79260
 H2039 H 0.26278 0.66825 0.74013
 H2040 H 0.27461 0.63900 0.74345
 C2041 C 0.32409 0.43605 0.73387
 C2042 C 0.31635 0.42258 0.73301
 C2043 C 0.30764 0.40620 0.73260
 C2044 C 0.29277 0.40368 0.74333
 C2045 C 0.28514 0.38735 0.74416
 C2046 C 0.29235 0.37331 0.73428
 C2047 C 0.30709 0.37607 0.72320
 C2048 C 0.31469 0.39241 0.72241
 C2049 C 0.28495 0.35572 0.73606
 C2050 C 0.28380 0.34468 0.72050
 C2051 C 0.27748 0.32787 0.72240
 C2052 C 0.27224 0.32191 0.73984
 C2053 C 0.27319 0.33282 0.75537
 C2054 C 0.27949 0.34963 0.75351
 C2055 C 0.26624 0.30447 0.74191
 C2056 C 0.26138 0.28982 0.74381
 H2057 H 0.28724 0.41427 0.75132
 H2058 H 0.27367 0.38566 0.75261
 H2059 H 0.31307 0.36549 0.71563
 H2060 H 0.32630 0.39420 0.71418
 H2061 H 0.28774 0.34907 0.70687
 H2062 H 0.27678 0.31951 0.71029
 H2063 H 0.26925 0.32827 0.76895
 H2064 H 0.28047 0.35772 0.76579
 C2065 C 0.82530 0.93499 0.23247
 C2066 C 0.81765 0.92148 0.23151
 C2067 C 0.80906 0.90504 0.23105
 C2068 C 0.79331 0.90290 0.24035
 C2069 C 0.78569 0.88657 0.24126
 C2070 C 0.79378 0.87216 0.23291
 C2071 C 0.80942 0.87453 0.22325
 C2072 C 0.81702 0.89087 0.22237
 C2073 C 0.78630 0.85462 0.23485
 C2074 C 0.78654 0.84290 0.21982
 C2075 C 0.78010 0.82616 0.22193
 C2076 C 0.77336 0.82095 0.23906
 C2077 C 0.77292 0.83254 0.25404
 C2078 C 0.77933 0.84928 0.25196
 C2079 C 0.76725 0.80359 0.24140
 C2080 C 0.76231 0.78899 0.24350
 H2081 H 0.78708 0.91379 0.24718
 H2082 H 0.77354 0.88517 0.24860
 H2083 H 0.81607 0.86366 0.21690
 H2084 H 0.82929 0.89237 0.21528
 H2085 H 0.79166 0.84670 0.20643
 H2086 H 0.78048 0.81726 0.21024
 H2087 H 0.76781 0.82858 0.26739
 H2088 H 0.77921 0.85792 0.26386
 C2089 C 0.67376 0.93482 0.76403
 C2090 C 0.68185 0.92171 0.76653
 C2091 C 0.69109 0.90569 0.76854
 C2092 C 0.70740 0.90363 0.76036
 C2093 C 0.71559 0.88751 0.76053
 C2094 C 0.70751 0.87321 0.76883
 C2095 C 0.69133 0.87553 0.77748
 C2096 C 0.68316 0.89167 0.77729
 C2097 C 0.71549 0.85577 0.76766
 C2098 C 0.71480 0.84442 0.78286
 C2099 C 0.72162 0.82771 0.78137
 C2100 C 0.72919 0.82215 0.76468
 C2101 C 0.73008 0.83337 0.74954
 C2102 C 0.72330 0.85008 0.75101
 C2103 C 0.73562 0.80479 0.76287
 C2104 C 0.74081 0.79019 0.76106
 H2105 H 0.71361 0.91439 0.75348
 H2106 H 0.72814 0.88616 0.75397
 H2107 H 0.68469 0.86473 0.78377
 H2108 H 0.67046 0.89308 0.78349
 H2109 H 0.70901 0.84849 0.79590
 H2110 H 0.72085 0.81909 0.79316
 H2111 H 0.73581 0.82913 0.73652
 H2112 H 0.72376 0.85840 0.73896
 C2113 C 0.17318 0.43421 0.26421
 C2114 C 0.18111 0.42101 0.26675
 C2115 C 0.19019 0.40491 0.26884
 C2116 C 0.20712 0.40318 0.26220
 C2117 C 0.21533 0.38706 0.26245
 C2118 C 0.20665 0.37245 0.26930
 C2119 C 0.18980 0.37443 0.27642
 C2120 C 0.18162 0.39056 0.27615
 C2121 C 0.21477 0.35508 0.26819
 C2122 C 0.21284 0.34319 0.28278
 C2123 C 0.21982 0.32655 0.28126
 C2124 C 0.22881 0.32161 0.26518
 C2125 C 0.23094 0.33338 0.25067
 C2126 C 0.22400 0.35002 0.25216
 C2127 C 0.23540 0.30432 0.26328
 C2128 C 0.24070 0.28977 0.26143
 H2129 H 0.21384 0.41421 0.25644
 H2130 H 0.22838 0.38598 0.25709
 H2131 H 0.18270 0.36339 0.28157
 H2132 H 0.16845 0.39173 0.28116
 H2133 H 0.20594 0.34677 0.29535
 H2134 H 0.21808 0.31750 0.29255
 H2135 H 0.23777 0.32962 0.23811
 H2136 H 0.22545 0.35877 0.24058
 C2137 C 0.06499 0.24639 0.82676
 C2138 C 0.07830 0.24572 0.81799
 C2139 C 0.09437 0.24496 0.80779
 C2140 C 0.10136 0.22899 0.80236
 C2141 C 0.11731 0.22823 0.79314
 C2142 C 0.12650 0.24347 0.78923
 C2143 C 0.11923 0.25948 0.79454
 C2144 C 0.10330 0.26019 0.80375
 C2145 C 0.14386 0.24272 0.78030
 C2146 C 0.14884 0.25522 0.76719
 C2147 C 0.16562 0.25529 0.75990
 C2148 C 0.17765 0.24284 0.76552
 C2149 C 0.17270 0.23007 0.77815
 C2150 C 0.15593 0.22997 0.78546
 C2151 C 0.19543 0.24413 0.75971
 C2152 C 0.21049 0.24575 0.75576
 H2153 H 0.09456 0.21710 0.80539
 H2154 H 0.12244 0.21573 0.78907
 H2155 H 0.12607 0.27143 0.79201
 H2156 H 0.09807 0.27263 0.80796
 H2157 H 0.13980 0.26507 0.76273
 H2158 H 0.16932 0.26530 0.75021
 H2159 H 0.18196 0.22048 0.78277
 H2160 H 0.15261 0.22031 0.79569
 C2161 C 0.56527 0.74582 0.32617
 C2162 C 0.57866 0.74518 0.31753
 C2163 C 0.59481 0.74447 0.30750
 C2164 C 0.60375 0.75973 0.30359
 C2165 C 0.61974 0.75906 0.29450
 C2166 C 0.62706 0.74308 0.28919
 C2167 C 0.61786 0.72782 0.29297
 C2168 C 0.60185 0.72852 0.30207
 C2169 C 0.64449 0.74238 0.28038
 C2170 C 0.65652 0.72961 0.28558
 C2171 C 0.67333 0.72971 0.27836
 C2172 C 0.67834 0.74251 0.26578
 C2173 C 0.66634 0.75499 0.26014
 C2174 C 0.64953 0.75491 0.26735
 C2175 C 0.69613 0.74375 0.25999
 C2176 C 0.71120 0.74530 0.25601
 H2177 H 0.59848 0.77215 0.30781
 H2178 H 0.62659 0.77103 0.29207
 H2179 H 0.62304 0.71533 0.28889
 H2180 H 0.59504 0.71662 0.30500
 H2181 H 0.65315 0.71991 0.29575
 H2182 H 0.68256 0.72010 0.28298
 H2183 H 0.67010 0.76501 0.25049
 H2184 H 0.64052 0.76477 0.26287
 C2185 C 0.56768 0.25428 0.17368
 C2186 C 0.58086 0.25527 0.18256
 C2187 C 0.59679 0.25640 0.19286
 C2188 C 0.61113 0.26465 0.18505
 C2189 C 0.62679 0.26527 0.19469
 C2190 C 0.62837 0.25762 0.21232
 C2191 C 0.61380 0.24954 0.22016
 C2192 C 0.59814 0.24894 0.21049
 C2193 C 0.64531 0.25749 0.22208
 C2194 C 0.65100 0.24257 0.23139
 C2195 C 0.66747 0.24196 0.23935
 C2196 C 0.67846 0.25626 0.23820
 C2197 C 0.67276 0.27133 0.22943
 C2198 C 0.65629 0.27197 0.22145
 C2199 C 0.69608 0.25485 0.24446
 C2200 C 0.71106 0.25319 0.24871
 H2201 H 0.61028 0.27041 0.17139
 H2202 H 0.63780 0.27134 0.18812
 H2203 H 0.61452 0.24369 0.23377
 H2204 H 0.58712 0.24254 0.21670
 H2205 H 0.64299 0.23113 0.23192
 H2206 H 0.67181 0.23016 0.24592
 H2207 H 0.68119 0.28244 0.22835
 H2208 H 0.65222 0.28372 0.21461
 C2209 C 0.06677 0.75402 0.67361
 C2210 C 0.07994 0.75495 0.68252
 C2211 C 0.09585 0.75603 0.69286
 C2212 C 0.11014 0.76452 0.68523
 C2213 C 0.12578 0.76511 0.69491
 C2214 C 0.12740 0.75718 0.71239
 C2215 C 0.11289 0.74885 0.72005
 C2216 C 0.09724 0.74829 0.71034
 C2217 C 0.14433 0.75704 0.72217
 C2218 C 0.15015 0.74201 0.73120
 C2219 C 0.16662 0.74140 0.73914
 C2220 C 0.17750 0.75580 0.73826
 C2221 C 0.17167 0.77097 0.72978
 C2222 C 0.15520 0.77161 0.72182
 C2223 C 0.19514 0.75443 0.74448
 C2224 C 0.21014 0.75283 0.74869
 H2225 H 0.10925 0.77050 0.67168
 H2226 H 0.13674 0.77139 0.68847
 H2227 H 0.11364 0.74279 0.73355
 H2228 H 0.08627 0.74170 0.71641
 H2229 H 0.14223 0.73050 0.73151
 H2230 H 0.17106 0.72952 0.74547
 H2231 H 0.18001 0.78217 0.72892
 H2232 H 0.15103 0.78345 0.71521
 C2233 C 0.93618 0.74665 0.67307
 C2234 C 0.92303 0.74615 0.68215
 C2235 C 0.90718 0.74558 0.69273
 C2236 C 0.89798 0.76083 0.69641
 C2237 C 0.88228 0.76025 0.70608
 C2238 C 0.87553 0.74438 0.71222
 C2239 C 0.88499 0.72914 0.70864
 C2240 C 0.90070 0.72975 0.69896
 C2241 C 0.85840 0.74374 0.72169
 C2242 C 0.84653 0.73055 0.71741
 C2243 C 0.82996 0.73067 0.72524
 C2244 C 0.82502 0.74391 0.73752
 C2245 C 0.83687 0.75682 0.74226
 C2246 C 0.85346 0.75674 0.73444
 C2247 C 0.80737 0.74511 0.74385
 C2248 C 0.79236 0.74661 0.74820
 H2249 H 0.90281 0.77315 0.69158
 H2250 H 0.87522 0.77219 0.70832
 H2251 H 0.88025 0.71675 0.71334
 H2252 H 0.90771 0.71786 0.69622
 H2253 H 0.84982 0.72049 0.70748
 H2254 H 0.82083 0.72071 0.72130
 H2255 H 0.83317 0.76720 0.75165
 H2256 H 0.86235 0.76694 0.73822
 C2257 C 0.43639 0.24663 0.17371
 C2258 C 0.42321 0.24609 0.18272
 C2259 C 0.40732 0.24547 0.19324
 C2260 C 0.39811 0.26070 0.19696
 C2261 C 0.38240 0.26010 0.20659
 C2262 C 0.37562 0.24421 0.21264
 C2263 C 0.38508 0.22897 0.20901
 C2264 C 0.40082 0.22962 0.19938
 C2265 C 0.35849 0.24354 0.22208
 C2266 C 0.34661 0.23037 0.21772
 C2267 C 0.33003 0.23047 0.22553
 C2268 C 0.32508 0.24366 0.23786
 C2269 C 0.33694 0.25655 0.24268
 C2270 C 0.35353 0.25648 0.23489
 C2271 C 0.30742 0.24485 0.24418
 C2272 C 0.29242 0.24634 0.24853
 H2273 H 0.40297 0.27304 0.19221
 H2274 H 0.37533 0.27203 0.20888
 H2275 H 0.38033 0.21657 0.21364
 H2276 H 0.40783 0.21773 0.19660
 H2277 H 0.34991 0.22035 0.20775
 H2278 H 0.32090 0.22054 0.22153
 H2279 H 0.33324 0.26688 0.25213
 H2280 H 0.36243 0.26667 0.23873
 C2281 C 0.43349 0.75377 0.32497
 C2282 C 0.42029 0.75440 0.31608
 C2283 C 0.40435 0.75503 0.30576
 C2284 C 0.39563 0.73972 0.30141
 C2285 C 0.37979 0.74029 0.29210
 C2286 C 0.37241 0.75623 0.28700
 C2287 C 0.38139 0.77156 0.29122
 C2288 C 0.39725 0.77095 0.30053
 C2289 C 0.35511 0.75682 0.27801
 C2290 C 0.34287 0.76943 0.28333
 C2291 C 0.32615 0.76916 0.27597
 C2292 C 0.32144 0.75636 0.26314
 C2293 C 0.33365 0.74407 0.25735
 C2294 C 0.35038 0.74430 0.26469
 C2295 C 0.30371 0.75490 0.25727
 C2296 C 0.28867 0.75317 0.25328
 H2297 H 0.40094 0.72733 0.30547
 H2298 H 0.37311 0.72827 0.28935
 H2299 H 0.37616 0.78401 0.28732
 H2300 H 0.40388 0.78290 0.30380
 H2301 H 0.34599 0.77910 0.29372
 H2302 H 0.31675 0.77864 0.28071
 H2303 H 0.33013 0.73404 0.24749
 H2304 H 0.35955 0.73456 0.26011
 C2305 C 0.93338 0.25373 0.82602
 C2306 C 0.92018 0.25425 0.81713
 C2307 C 0.90424 0.25474 0.80680
 C2308 C 0.89718 0.27056 0.80123
 C2309 C 0.88134 0.27104 0.79188
 C2310 C 0.87233 0.25566 0.78798
 C2311 C 0.87966 0.23980 0.79344
 C2312 C 0.89548 0.23936 0.80279
 C2313 C 0.85505 0.25612 0.77893
 C2314 C 0.85032 0.24337 0.76586
 C2315 C 0.83362 0.24304 0.75847
 C2316 C 0.82142 0.25547 0.76397
 C2317 C 0.82613 0.26849 0.77655
 C2318 C 0.84283 0.26884 0.78395
 C2319 C 0.80370 0.25395 0.75808
 C2320 C 0.78868 0.25219 0.75409
 H2321 H 0.90384 0.28255 0.80425
 H2322 H 0.87614 0.28343 0.78770
 H2323 H 0.87295 0.22775 0.79094
 H2324 H 0.90076 0.22704 0.80711
 H2325 H 0.85949 0.23353 0.76151
 H2326 H 0.83010 0.23285 0.74881
 H2327 H 0.81674 0.27806 0.78106
 H2328 H 0.84595 0.27869 0.79414
 C2329 C 0.58995 0.98287 0.67719
 C2330 C 0.58239 0.97945 0.66302
 C2331 C 0.57377 0.97571 0.64579
 C2332 C 0.55706 0.98199 0.64270
 C2333 C 0.54922 0.97958 0.62541
 C2334 C 0.55802 0.97089 0.61095
 C2335 C 0.57463 0.96421 0.61437
 C2336 C 0.58245 0.96663 0.63168
 C2337 C 0.55035 0.97000 0.59208
 C2338 C 0.56060 0.97336 0.57632
 C2339 C 0.55301 0.97493 0.55880
 C2340 C 0.53514 0.97306 0.55680
 C2341 C 0.52496 0.96886 0.57222
 C2342 C 0.53251 0.96729 0.58976
 C2343 C 0.52702 0.97796 0.53968
 C2344 C 0.52018 0.98349 0.52593
 H2345 H 0.55028 0.98912 0.65349
 H2346 H 0.53654 0.98513 0.62314
 H2347 H 0.58166 0.95733 0.60358
 H2348 H 0.59541 0.96172 0.63394
 H2349 H 0.57432 0.97574 0.57767
 H2350 H 0.56097 0.97843 0.54700
 H2351 H 0.51108 0.96755 0.57084
 H2352 H 0.52434 0.96447 0.60159
 C2353 C 0.09172 0.48406 1.17695
 C2354 C 0.08448 0.48099 1.16249
 C2355 C 0.07635 0.47773 1.14488
 C2356 C 0.06130 0.46777 1.14381
 C2357 C 0.05314 0.46527 1.12667
 C2358 C 0.05996 0.47270 1.11042
 C2359 C 0.07528 0.48240 1.11165
 C2360 C 0.08339 0.48487 1.12875
 C2361 C 0.05061 0.47147 1.09246
 C2362 C 0.05974 0.46980 1.07559
 C2363 C 0.05112 0.47114 1.05860
 C2364 C 0.03327 0.47401 1.05828
 C2365 C 0.02395 0.47480 1.07496
 C2366 C 0.03254 0.47349 1.09195
 C2367 C 0.02490 0.47868 1.04122
 C2368 C 0.01791 0.48405 1.02748
 H2369 H 0.05578 0.46213 1.15622
 H2370 H 0.04145 0.45763 1.12615
 H2371 H 0.08069 0.48856 1.09948
 H2372 H 0.09502 0.49263 1.12945
 H2373 H 0.07363 0.46800 1.07554
 H2374 H 0.05848 0.47066 1.04577
 H2375 H 0.01016 0.47726 1.07486
 H2376 H 0.02515 0.47505 1.10466
 C2377 C -0.08956 0.01598 1.17987
 C2378 C -0.08198 0.01983 1.16585
 C2379 C -0.07335 0.02411 1.14876
 C2380 C -0.08216 0.03332 1.13501
 C2381 C -0.07432 0.03627 1.11779
 C2382 C -0.05756 0.03000 1.11411
 C2383 C -0.04864 0.02118 1.12824
 C2384 C -0.05651 0.01825 1.14544
 C2385 C -0.04987 0.03140 1.09526
 C2386 C -0.03208 0.03450 1.09299
 C2387 C -0.02444 0.03335 1.07540
 C2388 C -0.03448 0.02920 1.05987
 C2389 C -0.05233 0.02698 1.06184
 C2390 C -0.06000 0.02812 1.07942
 C2391 C -0.02620 0.02459 1.04265
 C2392 C -0.01920 0.01924 1.02880
 H2393 H -0.09522 0.03791 1.13746
 H2394 H -0.08144 0.04322 1.10726
 H2395 H -0.03585 0.01594 1.12575
 H2396 H -0.04962 0.01102 1.15595
 H2397 H -0.02399 0.03727 1.10490
 H2398 H -0.01058 0.03494 1.07404
 H2399 H -0.06018 0.02350 1.04995
 H2400 H -0.07368 0.02545 1.08072
 C2401 C 0.40934 0.51566 0.67863
 C2402 C 0.41673 0.51943 0.66446
 C2403 C 0.42517 0.52360 0.64724
 C2404 C 0.44210 0.51801 0.64390
 C2405 C 0.44983 0.52087 0.62662
 C2406 C 0.44069 0.52935 0.61242
 C2407 C 0.42383 0.53534 0.61609
 C2408 C 0.41613 0.53247 0.63340
 C2409 C 0.44831 0.53072 0.59353
 C2410 C 0.43820 0.52711 0.57775
 C2411 C 0.44586 0.52596 0.56017
 C2412 C 0.46365 0.52849 0.55812
 C2413 C 0.47365 0.53297 0.57358
 C2414 C 0.46603 0.53414 0.59118
 C2415 C 0.47197 0.52388 0.54092
 C2416 C 0.47901 0.51852 0.52710
 H2417 H 0.44917 0.51105 0.65448
 H2418 H 0.46271 0.51584 0.62414
 H2419 H 0.41654 0.54204 0.60550
 H2420 H 0.40300 0.53685 0.63586
 H2421 H 0.42458 0.52420 0.57911
 H2422 H 0.43805 0.52223 0.54833
 H2423 H 0.48747 0.53479 0.57217
 H2424 H 0.47409 0.53717 0.60303
 C2425 C 0.40890 0.48189 -0.18199
 C2426 C 0.41614 0.47874 -0.16758
 C2427 C 0.42452 0.47520 -0.15019
 C2428 C 0.41554 0.46672 -0.13601
 C2429 C 0.42332 0.46420 -0.11872
 C2430 C 0.44021 0.47014 -0.11540
 C2431 C 0.44926 0.47830 -0.12989
 C2432 C 0.44145 0.48081 -0.14716
 C2433 C 0.44800 0.46895 -0.09660
 C2434 C 0.46572 0.46537 -0.09449
 C2435 C 0.47349 0.46654 -0.07701
 C2436 C 0.46362 0.47119 -0.06143
 C2437 C 0.44583 0.47395 -0.06323
 C2438 C 0.43804 0.47279 -0.08070
 C2439 C 0.47209 0.47567 -0.04433
 C2440 C 0.47923 0.48089 -0.03057
 H2441 H 0.40243 0.46230 -0.13823
 H2442 H 0.41610 0.45774 -0.10789
 H2443 H 0.46216 0.48328 -0.12770
 H2444 H 0.44849 0.48745 -0.15801
 H2445 H 0.47367 0.46216 -0.10644
 H2446 H 0.48730 0.46454 -0.07579
 H2447 H 0.43813 0.47782 -0.05130
 H2448 H 0.42442 0.47583 -0.08188
 C2449 C -0.09212 0.98306 0.31896
 C2450 C -0.08537 0.98020 0.33371
 C2451 C -0.07762 0.97699 0.35151
 C2452 C -0.08379 0.98574 0.36726
 C2453 C -0.07604 0.98310 0.38452
 C2454 C -0.06198 0.97164 0.38629
 C2455 C -0.05604 0.96268 0.37041
 C2456 C -0.06383 0.96534 0.35313
 C2457 C -0.05294 0.97000 0.40438
 C2458 C -0.03477 0.96979 0.40504
 C2459 C -0.02620 0.97066 0.42209
 C2460 C -0.03565 0.97164 0.43867
 C2461 C -0.05371 0.97098 0.43822
 C2462 C -0.06232 0.97010 0.42118
 C2463 C -0.02695 0.97598 0.45568
 C2464 C -0.01967 0.98113 0.46939
 H2465 H -0.09443 0.99481 0.36615
 H2466 H -0.08071 0.99044 0.39638
 H2467 H -0.04534 0.95368 0.37136
 H2468 H -0.05901 0.95844 0.34103
 H2469 H -0.02718 0.96994 0.39237
 H2470 H -0.01222 0.97143 0.42227
 H2471 H -0.06115 0.97190 0.45097
 H2472 H -0.07631 0.97002 0.42112
 C2473 C 0.09058 0.51482 0.31649
 C2474 C 0.08363 0.51765 0.33121
 C2475 C 0.07571 0.52082 0.34902
 C2476 C 0.06147 0.53194 0.35063
 C2477 C 0.05361 0.53464 0.36795
 C2478 C 0.05992 0.52625 0.38386
 C2479 C 0.07441 0.51530 0.38210
 C2480 C 0.08223 0.51263 0.36481
 C2481 C 0.05091 0.52798 0.40203
 C2482 C 0.06034 0.52865 0.41872
 C2483 C 0.05183 0.52797 0.43587
 C2484 C 0.03380 0.52672 0.43654
 C2485 C 0.02427 0.52689 0.42005
 C2486 C 0.03275 0.52756 0.40289
 C2487 C 0.02531 0.52267 0.45375
 C2488 C 0.01824 0.51777 0.46767
 H2489 H 0.05637 0.53841 0.33850
 H2490 H 0.04256 0.54324 0.36889
 H2491 H 0.07939 0.50840 0.39400
 H2492 H 0.09324 0.50398 0.36370
 H2493 H 0.07432 0.52921 0.41850
 H2494 H 0.05934 0.52768 0.44856
 H2495 H 0.01032 0.52567 0.42041
 H2496 H 0.02512 0.52681 0.39032
 C2497 C 0.59128 0.01543 -0.18302
 C2498 C 0.58397 0.01855 -0.16857
 C2499 C 0.57548 0.02210 -0.15114
 C2500 C 0.58426 0.03089 -0.13699
 C2501 C 0.57636 0.03352 -0.11969
 C2502 C 0.55955 0.02736 -0.11635
 C2503 C 0.55070 0.01887 -0.13082
 C2504 C 0.55863 0.01626 -0.14809
 C2505 C 0.55163 0.02873 -0.09757
 C2506 C 0.53385 0.03211 -0.09549
 C2507 C 0.52600 0.03114 -0.07800
 C2508 C 0.53584 0.02690 -0.06238
 C2509 C 0.55368 0.02434 -0.06417
 C2510 C 0.56155 0.02530 -0.08164
 C2511 C 0.52736 0.02265 -0.04523
 C2512 C 0.52023 0.01761 -0.03140
 H2513 H 0.59731 0.03549 -0.13923
 H2514 H 0.58343 0.04023 -0.10889
 H2515 H 0.53787 0.01372 -0.12860
 H2516 H 0.55174 0.00938 -0.15892
 H2517 H 0.52592 0.03501 -0.10746
 H2518 H 0.51216 0.03298 -0.07680
 H2519 H 0.56137 0.02079 -0.05221
 H2520 H 0.57522 0.02242 -0.08280
 C2521 C 0.68123 0.57514 -0.01165
 C2522 C 0.66751 0.56790 -0.01262
 C2523 C 0.65089 0.55967 -0.01330
 C2524 C 0.64892 0.54277 -0.00683
 C2525 C 0.63255 0.53517 -0.00644
 C2526 C 0.61795 0.54443 -0.01252
 C2527 C 0.62014 0.56132 -0.01928
 C2528 C 0.63650 0.56888 -0.01964
 C2529 C 0.60045 0.53675 -0.01126
 C2530 C 0.58832 0.53925 -0.02554
 C2531 C 0.57164 0.53252 -0.02398
 C2532 C 0.56689 0.52323 -0.00815
 C2533 C 0.57888 0.52057 0.00607
 C2534 C 0.59557 0.52726 0.00453
 C2535 C 0.54959 0.51683 -0.00622
 C2536 C 0.53504 0.51169 -0.00429
 H2537 H 0.65998 0.53554 -0.00186
 H2538 H 0.63130 0.52208 -0.00137
 H2539 H 0.60912 0.56886 -0.02381
 H2540 H 0.63789 0.58203 -0.02454
 H2541 H 0.59175 0.54636 -0.03793
 H2542 H 0.56242 0.53467 -0.03504
 H2543 H 0.57527 0.51351 0.01845
 H2544 H 0.60452 0.52536 0.01588
 C2545 C 0.18328 1.07301 0.48771
 C2546 C 0.16962 1.06564 0.48674
 C2547 C 0.15305 1.05732 0.48610
 C2548 C 0.15061 1.04141 0.49488
 C2549 C 0.13419 1.03394 0.49539
 C2550 C 0.12001 1.04232 0.48714
 C2551 C 0.12268 1.05815 0.47805
 C2552 C 0.13910 1.06560 0.47757
 C2553 C 0.10239 1.03493 0.48858
 C2554 C 0.09097 1.03559 0.47341
 C2555 C 0.07415 1.02923 0.47507
 C2556 C 0.06856 1.02213 0.49188
 C2557 C 0.07986 1.02128 0.50699
 C2558 C 0.09667 1.02762 0.50537
 C2559 C 0.05111 1.01613 0.49383
 C2560 C 0.03646 1.01129 0.49576
 H2561 H 0.16133 1.03492 0.50156
 H2562 H 0.13257 1.02164 0.50229
 H2563 H 0.11199 1.06503 0.47180
 H2564 H 0.14084 1.07799 0.47086
 H2565 H 0.09505 1.04099 0.46026
 H2566 H 0.06548 1.02994 0.46330
 H2567 H 0.07560 1.01591 0.52010
 H2568 H 0.10507 1.02717 0.51737
 C2569 C 0.18467 -0.07092 1.01037
 C2570 C 0.17102 -0.06340 1.01066
 C2571 C 0.15443 -0.05500 1.01061
 C2572 C 0.14851 -0.04698 0.99444
 C2573 C 0.13189 -0.03988 0.99389
 C2574 C 0.12097 -0.04077 1.00952
 C2575 C 0.12715 -0.04860 1.02582
 C2576 C 0.14378 -0.05569 1.02633
 C2577 C 0.10301 -0.03405 1.00859
 C2578 C 0.08930 -0.04342 1.01651
 C2579 C 0.07231 -0.03745 1.01502
 C2580 C 0.06881 -0.02205 1.00565
 C2581 C 0.08235 -0.01254 0.99787
 C2582 C 0.09936 -0.01849 0.99933
 C2583 C 0.05129 -0.01619 1.00364
 C2584 C 0.03660 -0.01141 1.00175
 H2585 H 0.15660 -0.04652 0.98214
 H2586 H 0.12742 -0.03416 0.98107
 H2587 H 0.11911 -0.04929 1.03813
 H2588 H 0.14823 -0.06192 1.03890
 H2589 H 0.09167 -0.05557 1.02348
 H2590 H 0.06188 -0.04494 1.02100
 H2591 H 0.07976 -0.00059 0.99059
 H2592 H 0.10966 -0.01091 0.99328
 C2593 C 0.68221 0.42668 0.51182
 C2594 C 0.66839 0.43389 0.51223
 C2595 C 0.65163 0.44194 0.51229
 C2596 C 0.64923 0.45804 0.50389
 C2597 C 0.63269 0.46530 0.50292
 C2598 C 0.61836 0.45651 0.51032
 C2599 C 0.62098 0.44046 0.51899
 C2600 C 0.63751 0.43323 0.51994
 C2601 C 0.60068 0.46377 0.50854
 C2602 C 0.58879 0.46256 0.52330
 C2603 C 0.57196 0.46888 0.52136
 C2604 C 0.56682 0.47648 0.50465
 C2605 C 0.57858 0.47786 0.48993
 C2606 C 0.59541 0.47156 0.49185
 C2607 C 0.54941 0.48257 0.50247
 C2608 C 0.53479 0.48752 0.50045
 H2609 H 0.66009 0.46487 0.49790
 H2610 H 0.63111 0.47777 0.49636
 H2611 H 0.61018 0.43328 0.52458
 H2612 H 0.63922 0.42069 0.52634
 H2613 H 0.59253 0.45679 0.53638
 H2614 H 0.56294 0.46776 0.53283
 H2615 H 0.57467 0.48364 0.47691
 H2616 H 0.60419 0.47245 0.48015
 C2617 C -0.18554 0.42842 0.49508
 C2618 C -0.17160 0.43530 0.49462
 C2619 C -0.15476 0.44310 0.49457
 C2620 C -0.14450 0.44225 0.51051
 C2621 C -0.12791 0.44932 0.51046
 C2622 C -0.12136 0.45735 0.49443
 C2623 C -0.13182 0.45823 0.47848
 C2624 C -0.14843 0.45114 0.47857
 C2625 C -0.10360 0.46451 0.49433
 C2626 C -0.09275 0.46220 0.47876
 C2627 C -0.07581 0.46845 0.47896
 C2628 C -0.06955 0.47709 0.49468
 C2629 C -0.08027 0.47959 0.51015
 C2630 C -0.09719 0.47336 0.50999
 C2631 C -0.05199 0.48304 0.49521
 C2632 C -0.03727 0.48791 0.49616
 H2633 H -0.14925 0.43597 0.52293
 H2634 H -0.12009 0.44821 0.52285
 H2635 H -0.12721 0.46450 0.46601
 H2636 H -0.15629 0.45186 0.46615
 H2637 H -0.09723 0.45523 0.46661
 H2638 H -0.06756 0.46637 0.46696
 H2639 H -0.07551 0.48626 0.52239
 H2640 H -0.10529 0.47553 0.52208
 C2641 C 0.31651 -0.07244 -0.00858
 C2642 C 0.33051 -0.06573 -0.00965
 C2643 C 0.34740 -0.05810 -0.01050
 C2644 C 0.36157 -0.06810 -0.01620
 C2645 C 0.37817 -0.06103 -0.01613
 C2646 C 0.38080 -0.04385 -0.01030
 C2647 C 0.36644 -0.03382 -0.00483
 C2648 C 0.34984 -0.04092 -0.00492
 C2649 C 0.39852 -0.03660 -0.00946
 C2650 C 0.40359 -0.02629 0.00574
 C2651 C 0.42044 -0.01993 0.00685
 C2652 C 0.43240 -0.02373 -0.00721
 C2653 C 0.42747 -0.03387 -0.02245
 C2654 C 0.41063 -0.04028 -0.02359
 C2655 C 0.44983 -0.01758 -0.00573
 C2656 C 0.46447 -0.01257 -0.00414
 H2657 H 0.35983 -0.08145 -0.02043
 H2658 H 0.38899 -0.06915 -0.02018
 H2659 H 0.36804 -0.02050 -0.00048
 H2660 H 0.33895 -0.03307 -0.00047
 H2661 H 0.39465 -0.02347 0.01696
 H2662 H 0.42419 -0.01219 0.01878
 H2663 H 0.43666 -0.03691 -0.03340
 H2664 H 0.40705 -0.04804 -0.03554
 C2665 C 0.31569 1.07225 0.50837
 C2666 C 0.32973 1.06550 0.50891
 C2667 C 0.34670 1.05790 0.50909
 C2668 C 0.35028 1.04332 0.49814
 C2669 C 0.36706 1.03660 0.49737
 C2670 C 0.38047 1.04443 0.50753
 C2671 C 0.37666 1.05892 0.51874
 C2672 C 0.35987 1.06562 0.51949
 C2673 C 0.39844 1.03782 0.50603
 C2674 C 0.40909 1.03694 0.52182
 C2675 C 0.42613 1.03103 0.52027
 C2676 C 0.43270 1.02594 0.50294
 C2677 C 0.42220 1.02672 0.48717
 C2678 C 0.40518 1.03261 0.48869
 C2679 C 0.45025 1.02002 0.50123
 C2680 C 0.46492 1.01508 0.49946
 H2681 H 0.34017 1.03727 0.49002
 H2682 H 0.36955 1.02530 0.48881
 H2683 H 0.38674 1.06535 0.52654
 H2684 H 0.35724 1.07699 0.52790
 H2685 H 0.40421 1.04068 0.53538
 H2686 H 0.43416 1.03043 0.53256
 H2687 H 0.42721 1.02285 0.47369
 H2688 H 0.39739 1.03339 0.47624
 C2689 C -0.18644 0.57305 1.00989
 C2690 C -0.17248 0.56616 1.01058
 C2691 C -0.15559 0.55839 1.01090
 C2692 C -0.14220 0.56641 1.02069
 C2693 C -0.12548 0.55955 1.01999
 C2694 C -0.12195 0.54459 1.00942
 C2695 C -0.13557 0.53644 0.99990
 C2696 C -0.15228 0.54333 1.00063
 C2697 C -0.10403 0.53784 1.00785
 C2698 C -0.09763 0.53193 0.99062
 C2699 C -0.08062 0.52601 0.98899
 C2700 C -0.06981 0.52590 1.00453
 C2701 C -0.07605 0.53167 1.02175
 C2702 C -0.09307 0.53761 1.02342
 C2703 C -0.05226 0.52003 1.00269
 C2704 C -0.03757 0.51515 1.00085
 H2705 H -0.14461 0.57816 1.02858
 H2706 H -0.11523 0.56623 1.02728
 H2707 H -0.13330 0.52478 0.99185
 H2708 H -0.16256 0.53704 0.99297
 H2709 H -0.10566 0.53221 0.97832
 H2710 H -0.07586 0.52163 0.97557
 H2711 H -0.06777 0.53162 1.03387
 H2712 H -0.09769 0.54192 1.03690
 C2713 C 0.00819 0.68455 0.57869
 C2714 C 0.00893 0.67128 0.56978
 C2715 C 0.00954 0.65523 0.55945
 C2716 C -0.00582 0.64667 0.55499
 C2717 C -0.00533 0.63074 0.54569
 C2718 C 0.01058 0.62310 0.54070
 C2719 C 0.02596 0.63192 0.54504
 C2720 C 0.02542 0.64787 0.55434
 C2721 C 0.01105 0.60570 0.53172
 C2722 C 0.02342 0.59333 0.53712
 C2723 C 0.02302 0.57654 0.52979
 C2724 C 0.01030 0.57187 0.51691
 C2725 C -0.00175 0.58420 0.51105
 C2726 C -0.00137 0.60100 0.51836
 C2727 C 0.00870 0.55409 0.51106
 C2728 C 0.00691 0.53901 0.50712
 H2729 H -0.01820 0.65218 0.55896
 H2730 H -0.01739 0.62420 0.54285
 H2731 H 0.03839 0.62649 0.54123
 H2732 H 0.03741 0.65437 0.55770
 H2733 H 0.03302 0.59643 0.54753
 H2734 H 0.03231 0.56706 0.53458
 H2735 H -0.01171 0.58072 0.50116
 H2736 H -0.01093 0.61026 0.51372
 C2737 C 0.50902 0.18430 0.07933
 C2738 C 0.50979 0.17099 0.07049
 C2739 C 0.51045 0.15490 0.06025
 C2740 C 0.49513 0.14627 0.05581
 C2741 C 0.49569 0.13031 0.04657
 C2742 C 0.51163 0.12270 0.04165
 C2743 C 0.52697 0.13159 0.04597
 C2744 C 0.52637 0.14757 0.05521
 C2745 C 0.51218 0.10529 0.03270
 C2746 C 0.52459 0.09298 0.03812
 C2747 C 0.52427 0.07618 0.03079
 C2748 C 0.51160 0.07145 0.01789
 C2749 C 0.49949 0.08373 0.01201
 C2750 C 0.49979 0.10053 0.01933
 C2751 C 0.51009 0.05368 0.01199
 C2752 C 0.50837 0.03862 0.00798
 H2753 H 0.48273 0.15175 0.05972
 H2754 H 0.48366 0.12371 0.04374
 H2755 H 0.53943 0.12619 0.04220
 H2756 H 0.53833 0.15413 0.05855
 H2757 H 0.53416 0.09612 0.04855
 H2758 H 0.53360 0.06674 0.03559
 H2759 H 0.48957 0.08020 0.00211
 H2760 H 0.49020 0.10975 0.01466
 C2761 C -0.00827 0.18539 0.92033
 C2762 C -0.00910 0.17211 0.92904
 C2763 C -0.00983 0.15604 0.93908
 C2764 C -0.02578 0.14841 0.94318
 C2765 C -0.02639 0.13238 0.95212
 C2766 C -0.01105 0.12375 0.95706
 C2767 C 0.00490 0.13166 0.95311
 C2768 C 0.00548 0.14766 0.94418
 C2769 C -0.01157 0.10626 0.96560
 C2770 C 0.00029 0.10161 0.97953
 C2771 C 0.00064 0.08476 0.98651
 C2772 C -0.01090 0.07234 0.97975
 C2773 C -0.02306 0.07695 0.96627
 C2774 C -0.02343 0.09379 0.95927
 C2775 C -0.00934 0.05457 0.98543
 C2776 C -0.00756 0.03952 0.98934
 H2777 H -0.03772 0.15476 0.93931
 H2778 H -0.03887 0.12674 0.95513
 H2779 H 0.01695 0.12526 0.95644
 H2780 H 0.01790 0.15338 0.94098
 H2781 H 0.00943 0.11095 0.98488
 H2782 H 0.01016 0.08132 0.99688
 H2783 H -0.03194 0.06740 0.96079
 H2784 H -0.03257 0.09685 0.94840
 C2785 C 0.49140 0.68478 0.41907
 C2786 C 0.49047 0.67148 0.42773
 C2787 C 0.48963 0.65537 0.43769
 C2788 C 0.47363 0.64790 0.44188
 C2789 C 0.47290 0.63186 0.45076
 C2790 C 0.48818 0.62304 0.45557
 C2791 C 0.50419 0.63080 0.45153
 C2792 C 0.50489 0.64682 0.44265
 C2793 C 0.48753 0.60555 0.46408
 C2794 C 0.49944 0.60075 0.47790
 C2795 C 0.49966 0.58389 0.48485
 C2796 C 0.48795 0.57160 0.47816
 C2797 C 0.47575 0.57636 0.46478
 C2798 C 0.47551 0.59321 0.45781
 C2799 C 0.48937 0.55381 0.48382
 C2800 C 0.49103 0.53875 0.48773
 H2801 H 0.46173 0.65439 0.43811
 H2802 H 0.46038 0.62634 0.45385
 H2803 H 0.51620 0.62426 0.45475
 H2804 H 0.51735 0.65242 0.43939
 H2805 H 0.50871 0.60999 0.48321
 H2806 H 0.50921 0.58034 0.49514
 H2807 H 0.46673 0.56691 0.45936
 H2808 H 0.46632 0.59639 0.44702
 C2809 C 0.50741 0.81658 0.41779
 C2810 C 0.50905 0.83007 0.42614
 C2811 C 0.51070 0.84639 0.43576
 C2812 C 0.51906 0.86024 0.42714
 C2813 C 0.51989 0.87637 0.43599
 C2814 C 0.51232 0.87891 0.45362
 C2815 C 0.50419 0.86483 0.46231
 C2816 C 0.50338 0.84870 0.45343
 C2817 C 0.51224 0.89637 0.46246
 C2818 C 0.49734 0.90258 0.47162
 C2819 C 0.49676 0.91943 0.47875
 C2820 C 0.51106 0.93033 0.47690
 C2821 C 0.52610 0.92416 0.46823
 C2822 C 0.52671 0.90729 0.46109
 C2823 C 0.50974 0.94820 0.48253
 C2824 C 0.50817 0.96332 0.48645
 H2825 H 0.52469 0.85865 0.41342
 H2826 H 0.52601 0.88698 0.42879
 H2827 H 0.49840 0.86629 0.47595
 H2828 H 0.49687 0.83808 0.46024
 H2829 H 0.48589 0.89462 0.47270
 H2830 H 0.48499 0.92412 0.48525
 H2831 H 0.53723 0.93250 0.46665
 H2832 H 0.53844 0.90285 0.45434
 C2833 C 0.00685 0.31715 0.91882
 C2834 C 0.00837 0.33062 0.92724
 C2835 C 0.00987 0.34691 0.93697
 C2836 C 0.00251 0.34906 0.95464
 C2837 C 0.00313 0.36515 0.96360
 C2838 C 0.01113 0.37936 0.95500
 C2839 C 0.01877 0.37697 0.93738
 C2840 C 0.01812 0.36087 0.92844
 C2841 C 0.01084 0.39679 0.96391
 C2842 C 0.02519 0.40787 0.96260
 C2843 C 0.02438 0.42472 0.96979
 C2844 C 0.00926 0.43070 0.97844
 C2845 C -0.00492 0.41964 0.98023
 C2846 C -0.00415 0.40280 0.97306
 C2847 C 0.00775 0.44854 0.98412
 C2848 C 0.00604 0.46364 0.98804
 H2849 H -0.00391 0.33835 0.96139
 H2850 H -0.00268 0.36650 0.97724
 H2851 H 0.02479 0.38767 0.93024
 H2852 H 0.02378 0.35940 0.91473
 H2853 H 0.03699 0.40358 0.95586
 H2854 H 0.03541 0.43319 0.96825
 H2855 H -0.01676 0.42418 0.98672
 H2856 H -0.01550 0.39472 0.97408
 C2857 C 0.49429 0.31561 0.08006
 C2858 C 0.49297 0.32880 0.07126
 C2859 C 0.49179 0.34475 0.06105
 C2860 C 0.50688 0.35340 0.05579
 C2861 C 0.50588 0.36923 0.04657
 C2862 C 0.48973 0.37671 0.04246
 C2863 C 0.47461 0.36782 0.04760
 C2864 C 0.47565 0.35195 0.05682
 C2865 C 0.48877 0.39401 0.03351
 C2866 C 0.47655 0.40636 0.03955
 C2867 C 0.47655 0.42307 0.03221
 C2868 C 0.48871 0.42768 0.01868
 C2869 C 0.50060 0.41536 0.01219
 C2870 C 0.50061 0.39864 0.01951
 C2871 C 0.48997 0.44540 0.01274
 C2872 C 0.49154 0.46043 0.00868
 H2873 H 0.51944 0.34801 0.05907
 H2874 H 0.51776 0.37585 0.04311
 H2875 H 0.46199 0.37312 0.04447
 H2876 H 0.46387 0.34539 0.06081
 H2877 H 0.46740 0.40331 0.05046
 H2878 H 0.46741 0.43255 0.03748
 H2879 H 0.51013 0.41880 0.00180
 H2880 H 0.51003 0.38938 0.01437
 C2881 C -0.00627 0.81584 0.58015
 C2882 C -0.00752 0.82905 0.57137
 C2883 C -0.00862 0.84502 0.56117
 C2884 C -0.02469 0.85266 0.55763
 C2885 C -0.02563 0.86855 0.54842
 C2886 C -0.01046 0.87702 0.54263
 C2887 C 0.00561 0.86908 0.54605
 C2888 C 0.00651 0.85322 0.55525
 C2889 C -0.01128 0.89435 0.53375
 C2890 C 0.00016 0.89868 0.51925
 C2891 C 0.00031 0.91541 0.51194
 C2892 C -0.01100 0.92803 0.51894
 C2893 C -0.02276 0.92373 0.53299
 C2894 C -0.02293 0.90701 0.54032
 C2895 C -0.00952 0.94572 0.51294
 C2896 C -0.00777 0.96071 0.50882
 H2897 H -0.03650 0.84644 0.56213
 H2898 H -0.03820 0.87421 0.54584
 H2899 H 0.01754 0.87535 0.54207
 H2900 H 0.01903 0.84749 0.55799
 H2901 H 0.00913 0.88919 0.51371
 H2902 H 0.00953 0.91860 0.50114
 H2903 H -0.03145 0.93344 0.53865
 H2904 H -0.03174 0.90420 0.55161
 C2905 C 0.23211 0.34321 0.07389
 C2906 C 0.22905 0.33597 0.08831
 C2907 C 0.22587 0.32781 0.10589
 C2908 C 0.21589 0.31278 0.10694
 C2909 C 0.21352 0.30457 0.12403
 C2910 C 0.22112 0.31131 0.14028
 C2911 C 0.23084 0.32661 0.13908
 C2912 C 0.23318 0.33479 0.12202
 C2913 C 0.22007 0.30187 0.15816
 C2914 C 0.21863 0.31094 0.17512
 C2915 C 0.22020 0.30224 0.19202
 C2916 C 0.22307 0.28438 0.19215
 C2917 C 0.22361 0.27513 0.17539
 C2918 C 0.22208 0.28379 0.15849
 C2919 C 0.22801 0.27596 0.20907
 C2920 C 0.23360 0.26900 0.22272
 H2921 H 0.21013 0.30731 0.09453
 H2922 H 0.20586 0.29288 0.12454
 H2923 H 0.23715 0.33196 0.15123
 H2924 H 0.24097 0.34639 0.12135
 H2925 H 0.21685 0.32484 0.17531
 H2926 H 0.21992 0.30955 0.20492
 H2927 H 0.22608 0.26133 0.17535
 H2928 H 0.22346 0.27646 0.14571
 C2929 C 0.73403 0.84357 0.57346
 C2930 C 0.73081 0.83648 0.58792
 C2931 C 0.72741 0.82842 0.60550
 C2932 C 0.73490 0.83520 0.62163
 C2933 C 0.73234 0.82708 0.63869
 C2934 C 0.72222 0.81203 0.63987
 C2935 C 0.71444 0.80550 0.62363
 C2936 C 0.71703 0.81366 0.60654
 C2937 C 0.72091 0.80262 0.65775
 C2938 C 0.72246 0.78450 0.65808
 C2939 C 0.72376 0.77579 0.67498
 C2940 C 0.72346 0.78506 0.69174
 C2941 C 0.72105 0.80299 0.69160
 C2942 C 0.71970 0.81173 0.67471
 C2943 C 0.72823 0.77654 0.70866
 C2944 C 0.73370 0.76950 0.72232
 H2945 H 0.74299 0.84659 0.62097
 H2946 H 0.73878 0.83225 0.65084
 H2947 H 0.70648 0.79403 0.62412
 H2948 H 0.71113 0.80835 0.59413
 H2949 H 0.72366 0.77714 0.64530
 H2950 H 0.72588 0.76194 0.67494
 H2951 H 0.72096 0.81030 0.70450
 H2952 H 0.71828 0.82566 0.67490
 C2953 C 0.26580 0.65961 0.57045
 C2954 C 0.26959 0.66709 0.58460
 C2955 C 0.27378 0.67558 0.60182
 C2956 C 0.26805 0.69247 0.60522
 C2957 C 0.27089 0.70022 0.62253
 C2958 C 0.27949 0.69115 0.63669
 C2959 C 0.28562 0.67434 0.63296
 C2960 C 0.28277 0.66661 0.61563
 C2961 C 0.28083 0.69876 0.65562
 C2962 C 0.27733 0.68861 0.67136
 C2963 C 0.27615 0.69624 0.68897
 C2964 C 0.27855 0.71406 0.69109
 C2965 C 0.28291 0.72412 0.67568
 C2966 C 0.28410 0.71652 0.65805
 C2967 C 0.27392 0.72233 0.70833
 C2968 C 0.26857 0.72934 0.72218
 H2969 H 0.26099 0.69948 0.59467
 H2970 H 0.26575 0.71306 0.62506
 H2971 H 0.29241 0.66710 0.64353
 H2972 H 0.28725 0.65352 0.61313
 H2973 H 0.27453 0.67496 0.66993
 H2974 H 0.27251 0.68839 0.70077
 H2975 H 0.28463 0.73796 0.67715
 H2976 H 0.28704 0.72461 0.64623
 C2977 C 0.76714 0.15927 0.07080
 C2978 C 0.77088 0.16685 0.08490
 C2979 C 0.77503 0.17546 0.10207
 C2980 C 0.76910 0.19229 0.10543
 C2981 C 0.77190 0.20014 0.12270
 C2982 C 0.78064 0.19121 0.13687
 C2983 C 0.78698 0.17447 0.13317
 C2984 C 0.78417 0.16666 0.11588
 C2985 C 0.78190 0.19889 0.15577
 C2986 C 0.77854 0.18872 0.17153
 C2987 C 0.77728 0.19636 0.18913
 C2988 C 0.77946 0.21421 0.19121
 C2989 C 0.78367 0.22430 0.17577
 C2990 C 0.78494 0.21668 0.15816
 C2991 C 0.77479 0.22246 0.20845
 C2992 C 0.76942 0.22944 0.22230
 H2993 H 0.76192 0.19918 0.09487
 H2994 H 0.76661 0.21292 0.12519
 H2995 H 0.79388 0.16735 0.14374
 H2996 H 0.78881 0.15361 0.11341
 H2997 H 0.77591 0.17503 0.17014
 H2998 H 0.77376 0.18849 0.20096
 H2999 H 0.78522 0.23816 0.17721
 H3000 H 0.78776 0.22480 0.14632
 C3001 C 0.73405 0.15562 0.93082
 C3002 C 0.73107 0.16239 0.91612
 C3003 C 0.72773 0.17017 0.89838
 C3004 C 0.73627 0.16396 0.88253
 C3005 C 0.73350 0.17173 0.86532
 C3006 C 0.72211 0.18587 0.86372
 C3007 C 0.71336 0.19186 0.87969
 C3008 C 0.71616 0.18404 0.89691
 C3009 C 0.72031 0.19491 0.84567
 C3010 C 0.72018 0.21309 0.84507
 C3011 C 0.72086 0.22166 0.82805
 C3012 C 0.72157 0.21221 0.81142
 C3013 C 0.72084 0.19414 0.81183
 C3014 C 0.72015 0.18553 0.82885
 C3015 C 0.72573 0.22088 0.79439
 C3016 C 0.73076 0.22812 0.78065
 H3017 H 0.74528 0.15324 0.88352
 H3018 H 0.74068 0.16702 0.85338
 H3019 H 0.70442 0.20262 0.87887
 H3020 H 0.70943 0.18890 0.90910
 H3021 H 0.72054 0.22068 0.85776
 H3022 H 0.72169 0.23565 0.82789
 H3023 H 0.72156 0.18670 0.79904
 H3024 H 0.72001 0.17153 0.82886
 C3025 C 0.23259 0.65715 0.43042
 C3026 C 0.22971 0.66393 0.41570
 C3027 C 0.22651 0.67170 0.39793
 C3028 C 0.23494 0.66526 0.38211
 C3029 C 0.23234 0.67302 0.36487
 C3030 C 0.22124 0.68737 0.36319
 C3031 C 0.21258 0.69358 0.37913
 C3032 C 0.21520 0.68577 0.39639
 C3033 C 0.21966 0.69640 0.34512
 C3034 C 0.21990 0.71458 0.34446
 C3035 C 0.22078 0.72309 0.32741
 C3036 C 0.22134 0.71358 0.31082
 C3037 C 0.22025 0.69553 0.31127
 C3038 C 0.21935 0.68698 0.32832
 C3039 C 0.22563 0.72214 0.29376
 C3040 C 0.23073 0.72929 0.27999
 H3041 H 0.24374 0.65438 0.38316
 H3042 H 0.23945 0.66812 0.35296
 H3043 H 0.20385 0.70451 0.37825
 H3044 H 0.20855 0.69081 0.40855
 H3045 H 0.22037 0.72219 0.35712
 H3046 H 0.22188 0.73705 0.32722
 H3047 H 0.22084 0.68804 0.29851
 H3048 H 0.21894 0.67299 0.32838
 C3049 C 0.76737 0.84109 0.43362
 C3050 C 0.77057 0.83356 0.41930
 C3051 C 0.77421 0.82484 0.40201
 C3052 C 0.78326 0.83338 0.38793
 C3053 C 0.78591 0.82530 0.37071
 C3054 C 0.77951 0.80856 0.36738
 C3055 C 0.77077 0.79995 0.38179
 C3056 C 0.76814 0.80805 0.39898
 C3057 C 0.78084 0.80052 0.34864
 C3058 C 0.78393 0.78266 0.34664
 C3059 C 0.78289 0.77474 0.32917
 C3060 C 0.77886 0.78456 0.31349
 C3061 C 0.77660 0.80245 0.31519
 C3062 C 0.77763 0.81040 0.33264
 C3063 C 0.77448 0.77603 0.29636
 C3064 C 0.76932 0.76889 0.28256
 H3065 H 0.78803 0.84638 0.39015
 H3066 H 0.79281 0.83218 0.35995
 H3067 H 0.76543 0.78718 0.37957
 H3068 H 0.76105 0.80136 0.40976
 H3069 H 0.78666 0.77475 0.35866
 H3070 H 0.78450 0.76085 0.32803
 H3071 H 0.77321 0.81013 0.30318
 H3072 H 0.77498 0.82413 0.33374
 C3073 C 0.26394 0.34354 0.93330
 C3074 C 0.26689 0.33653 0.91862
 C3075 C 0.27025 0.32852 0.90089
 C3076 C 0.26182 0.33462 0.88504
 C3077 C 0.26469 0.32669 0.86782
 C3078 C 0.27606 0.31252 0.86619
 C3079 C 0.28469 0.30664 0.88216
 C3080 C 0.28180 0.31461 0.89940
 C3081 C 0.27799 0.30335 0.84811
 C3082 C 0.27809 0.28516 0.84742
 C3083 C 0.27755 0.27648 0.83035
 C3084 C 0.27702 0.28582 0.81377
 C3085 C 0.27777 0.30389 0.81427
 C3086 C 0.27832 0.31261 0.83133
 C3087 C 0.27304 0.27705 0.79667
 C3088 C 0.26816 0.26975 0.78284
 H3089 H 0.25285 0.34537 0.88604
 H3090 H 0.25761 0.33133 0.85587
 H3091 H 0.29362 0.29585 0.88131
 H3092 H 0.28846 0.30985 0.91158
 H3093 H 0.27761 0.27766 0.86007
 H3094 H 0.27670 0.26249 0.83013
 H3095 H 0.27719 0.31126 0.80151
 H3096 H 0.27848 0.32661 0.83141
 C3097 C 0.82134 0.43159 0.76159
 C3098 C 0.81403 0.41789 0.76240
 C3099 C 0.80579 0.40127 0.76289
 C3100 C 0.79094 0.39823 0.75233
 C3101 C 0.78364 0.38173 0.75177
 C3102 C 0.79115 0.36805 0.76176
 C3103 C 0.80590 0.37132 0.77260
 C3104 C 0.81317 0.38783 0.77313
 C3105 C 0.78400 0.35031 0.76038
 C3106 C 0.78308 0.33966 0.77614
 C3107 C 0.77688 0.32275 0.77464
 C3108 C 0.77153 0.31630 0.75740
 C3109 C 0.77228 0.32682 0.74167
 C3110 C 0.77846 0.34372 0.74313
 C3111 C 0.76561 0.29879 0.75569
 C3112 C 0.76080 0.28409 0.75392
 H3113 H 0.78515 0.40854 0.74432
 H3114 H 0.77217 0.37965 0.74349
 H3115 H 0.81211 0.36101 0.78023
 H3116 H 0.82475 0.39003 0.78123
 H3117 H 0.78709 0.34443 0.78963
 H3118 H 0.77634 0.31470 0.78690
 H3119 H 0.76824 0.32190 0.72823
 H3120 H 0.77926 0.35150 0.73069
 C3121 C 0.32164 0.93248 0.25982
 C3122 C 0.31426 0.91881 0.26068
 C3123 C 0.30596 0.90223 0.26124
 C3124 C 0.31329 0.88881 0.27156
 C3125 C 0.30597 0.87232 0.27108
 C3126 C 0.29123 0.86905 0.26023
 C3127 C 0.28378 0.88270 0.25016
 C3128 C 0.29112 0.89919 0.25066
 C3129 C 0.28403 0.85133 0.25895
 C3130 C 0.27849 0.84466 0.24174
 C3131 C 0.27228 0.82776 0.24037
 C3132 C 0.27151 0.81733 0.25617
 C3133 C 0.27684 0.82387 0.27339
 C3134 C 0.28306 0.84078 0.27478
 C3135 C 0.26560 0.79981 0.25457
 C3136 C 0.26081 0.78510 0.25291
 H3137 H 0.32486 0.89101 0.27967
 H3138 H 0.31215 0.86203 0.27877
 H3139 H 0.27232 0.88062 0.24186
 H3140 H 0.28537 0.90949 0.24260
 H3141 H 0.27932 0.85236 0.22925
 H3142 H 0.26825 0.82277 0.22697
 H3143 H 0.27627 0.81589 0.28570
 H3144 H 0.28705 0.84562 0.28825
 C3145 C 0.17726 0.93283 0.73796
 C3146 C 0.18433 0.91894 0.73744
 C3147 C 0.19224 0.90210 0.73729
 C3148 C 0.20852 0.89964 0.74527
 C3149 C 0.21567 0.88305 0.74619
 C3150 C 0.20658 0.86871 0.73915
 C3151 C 0.19034 0.87138 0.73089
 C3152 C 0.18322 0.88797 0.73000
 C3153 C 0.21374 0.85099 0.74090
 C3154 C 0.21205 0.83894 0.72628
 C3155 C 0.21831 0.82208 0.72821
 C3156 C 0.22633 0.81707 0.74473
 C3157 C 0.22817 0.82896 0.75930
 C3158 C 0.22193 0.84583 0.75741
 C3159 C 0.23242 0.79964 0.74689
 C3160 C 0.23742 0.78503 0.74890
 H3161 H 0.21559 0.91050 0.75099
 H3162 H 0.22829 0.88142 0.75242
 H3163 H 0.18292 0.86058 0.72559
 H3164 H 0.17054 0.88973 0.72393
 H3165 H 0.20596 0.84258 0.71334
 H3166 H 0.21684 0.81295 0.71685
 H3167 H 0.23428 0.82516 0.77219
 H3168 H 0.22319 0.85472 0.76900
 C3169 C 0.67821 0.43288 0.23873
 C3170 C 0.68545 0.41908 0.23828
 C3171 C 0.69355 0.40233 0.23817
 C3172 C 0.70903 0.39968 0.24775
 C3173 C 0.71626 0.38312 0.24866
 C3174 C 0.70806 0.36901 0.23999
 C3175 C 0.69264 0.37189 0.23014
 C3176 C 0.68544 0.38844 0.22926
 C3177 C 0.71522 0.35129 0.24169
 C3178 C 0.71506 0.33983 0.22643
 C3179 C 0.72127 0.32294 0.22826
 C3180 C 0.72772 0.31732 0.24534
 C3181 C 0.72805 0.32864 0.26057
 C3182 C 0.72186 0.34553 0.25877
 C3183 C 0.73371 0.29985 0.24738
 C3184 C 0.73860 0.28519 0.24930
 H3185 H 0.71538 0.41035 0.25473
 H3186 H 0.72824 0.38134 0.25616
 H3187 H 0.68590 0.36125 0.22355
 H3188 H 0.67337 0.39034 0.22193
 H3189 H 0.71020 0.34395 0.21306
 H3190 H 0.72098 0.31426 0.21639
 H3191 H 0.73294 0.32436 0.27388
 H3192 H 0.72192 0.35395 0.27084
 C3193 C 0.67894 0.56525 0.25952
 C3194 C 0.68596 0.57909 0.26072
 C3195 C 0.69394 0.59583 0.26168
 C3196 C 0.70964 0.59877 0.25255
 C3197 C 0.71682 0.61533 0.25246
 C3198 C 0.70835 0.62916 0.26147
 C3199 C 0.69273 0.62599 0.27089
 C3200 C 0.68557 0.60943 0.27096
 C3201 C 0.71546 0.64693 0.26054
 C3202 C 0.71491 0.65794 0.27617
 C3203 C 0.72112 0.67486 0.27504
 C3204 C 0.72795 0.68096 0.25830
 C3205 C 0.72865 0.67008 0.24271
 C3206 C 0.72247 0.65317 0.24381
 C3207 C 0.73393 0.69846 0.25691
 C3208 C 0.73882 0.71314 0.25536
 H3209 H 0.71621 0.58833 0.24530
 H3210 H 0.72897 0.61733 0.24529
 H3211 H 0.68579 0.63641 0.27775
 H3212 H 0.67335 0.60730 0.27796
 H3213 H 0.70975 0.65344 0.28929
 H3214 H 0.72053 0.68320 0.28718
 H3215 H 0.73384 0.67473 0.22966
 H3216 H 0.72282 0.64511 0.23146
 C3217 C 0.17946 0.06545 0.75903
 C3218 C 0.18647 0.07930 0.76013
 C3219 C 0.19439 0.09607 0.76101
 C3220 C 0.20950 0.09936 0.75093
 C3221 C 0.21657 0.11597 0.75083
 C3222 C 0.20857 0.12951 0.76081
 C3223 C 0.19354 0.12599 0.77117
 C3224 C 0.18650 0.10938 0.77123
 C3225 C 0.21551 0.14735 0.75994
 C3226 C 0.21578 0.15796 0.77590
 C3227 C 0.22184 0.17494 0.77487
 C3228 C 0.22768 0.18150 0.75790
 C3229 C 0.22755 0.17104 0.74199
 C3230 C 0.22152 0.15407 0.74298
 C3231 C 0.23353 0.19906 0.75666
 C3232 C 0.23833 0.21378 0.75523
 H3233 H 0.21569 0.08915 0.74295
 H3234 H 0.22827 0.11823 0.74293
 H3235 H 0.18696 0.13619 0.77878
 H3236 H 0.17473 0.10699 0.77898
 H3237 H 0.21141 0.15309 0.78918
 H3238 H 0.22189 0.18296 0.78727
 H3239 H 0.23197 0.17604 0.72877
 H3240 H 0.22121 0.14632 0.73040
 C3241 C 0.32040 0.06392 0.24080
 C3242 C 0.31382 0.07804 0.24027
 C3243 C 0.30644 0.09511 0.24009
 C3244 C 0.29189 0.09890 0.25099
 C3245 C 0.28540 0.11577 0.25178
 C3246 C 0.29342 0.12908 0.24169
 C3247 C 0.30787 0.12507 0.23053
 C3248 C 0.31434 0.10819 0.22977
 C3249 C 0.28705 0.14714 0.24320
 C3250 C 0.28635 0.15780 0.22743
 C3251 C 0.28067 0.17492 0.22900
 C3252 C 0.27564 0.18158 0.24631
 C3253 C 0.27625 0.17108 0.26206
 C3254 C 0.28191 0.15397 0.26053
 C3255 C 0.26994 0.19920 0.24802
 C3256 C 0.26516 0.21394 0.24973
 H3257 H 0.28571 0.08887 0.25906
 H3258 H 0.27413 0.11842 0.26029
 H3259 H 0.31445 0.13506 0.22280
 H3260 H 0.32568 0.10541 0.22140
 H3261 H 0.29005 0.15286 0.21388
 H3262 H 0.28020 0.18296 0.21672
 H3263 H 0.27243 0.17615 0.27553
 H3264 H 0.28256 0.14617 0.27296
 C3265 C 0.82073 0.56435 0.74171
 C3266 C 0.81411 0.57845 0.74110
 C3267 C 0.80670 0.59551 0.74079
 C3268 C 0.79188 0.59924 0.75127
 C3269 C 0.78531 0.61609 0.75187
 C3270 C 0.79352 0.62942 0.74201
 C3271 C 0.80826 0.62547 0.73128
 C3272 C 0.81480 0.60862 0.73070
 C3273 C 0.78705 0.64747 0.74332
 C3274 C 0.78673 0.65813 0.72754
 C3275 C 0.78099 0.67525 0.72894
 C3276 C 0.77552 0.68190 0.74610
 C3277 C 0.77572 0.67139 0.76185
 C3278 C 0.78144 0.65428 0.76049
 C3279 C 0.76980 0.69953 0.74767
 C3280 C 0.76501 0.71427 0.74932
 H3281 H 0.78553 0.58918 0.75915
 H3282 H 0.77382 0.61869 0.76006
 H3283 H 0.81499 0.63549 0.72374
 H3284 H 0.82636 0.60588 0.72265
 H3285 H 0.79079 0.65320 0.71410
 H3286 H 0.78085 0.68329 0.71666
 H3287 H 0.77155 0.67645 0.77521
 H3288 H 0.78178 0.64649 0.77294
 C3289 C 0.93464 0.75971 0.17003
 C3290 C 0.92134 0.76077 0.17881
 C3291 C 0.90525 0.76183 0.18895
 C3292 C 0.89097 0.77014 0.18106
 C3293 C 0.87511 0.77055 0.19044
 C3294 C 0.87327 0.76261 0.20790
 C3295 C 0.88778 0.75450 0.21585
 C3296 C 0.90364 0.75412 0.20642
 C3297 C 0.85612 0.76218 0.21734
 C3298 C 0.85046 0.74706 0.22627
 C3299 C 0.83384 0.74617 0.23392
 C3300 C 0.82265 0.76039 0.23284
 C3301 C 0.82831 0.77564 0.22444
 C3302 C 0.84493 0.77656 0.21676
 C3303 C 0.80495 0.75876 0.23887
 C3304 C 0.78993 0.75698 0.24299
 H3305 H 0.89202 0.77608 0.16750
 H3306 H 0.86417 0.77666 0.18379
 H3307 H 0.88686 0.74843 0.22934
 H3308 H 0.91460 0.74765 0.21269
 H3309 H 0.85863 0.73568 0.22674
 H3310 H 0.82955 0.73423 0.24020
 H3311 H 0.81974 0.78671 0.22343
 H3312 H 0.84896 0.78846 0.21022
 C3313 C 0.43394 0.25981 0.67064
 C3314 C 0.42064 0.26100 0.67940
 C3315 C 0.40456 0.26222 0.68954
 C3316 C 0.39030 0.27047 0.68155
 C3317 C 0.37444 0.27100 0.69094
 C3318 C 0.37260 0.26325 0.70849
 C3319 C 0.38710 0.25521 0.71653
 C3320 C 0.40295 0.25470 0.70711
 C3321 C 0.35545 0.26293 0.71793
 C3322 C 0.34977 0.24791 0.72705
 C3323 C 0.33315 0.24711 0.73469
 C3324 C 0.32197 0.26131 0.73342
 C3325 C 0.32763 0.27648 0.72483
 C3326 C 0.34426 0.27730 0.71717
 C3327 C 0.30425 0.25973 0.73939
 C3328 C 0.28922 0.25795 0.74343
 H3329 H 0.39135 0.27626 0.66791
 H3330 H 0.36350 0.27705 0.68421
 H3331 H 0.38617 0.24929 0.73010
 H3332 H 0.41390 0.24829 0.71346
 H3333 H 0.35794 0.23653 0.72766
 H3334 H 0.32885 0.23523 0.74112
 H3335 H 0.31906 0.28752 0.72367
 H3336 H 0.34830 0.28913 0.71047
 C3337 C 0.43525 0.74012 0.82969
 C3338 C 0.42185 0.73886 0.82123
 C3339 C 0.40559 0.73754 0.81158
 C3340 C 0.40341 0.74529 0.79420
 C3341 C 0.38733 0.74478 0.78535
 C3342 C 0.37317 0.73650 0.79378
 C3343 C 0.37559 0.72849 0.81110
 C3344 C 0.39167 0.72903 0.81992
 C3345 C 0.35576 0.73684 0.78500
 C3346 C 0.34479 0.72237 0.78590
 C3347 C 0.32797 0.72319 0.77885
 C3348 C 0.32189 0.73844 0.77074
 C3349 C 0.33283 0.75276 0.76936
 C3350 C 0.34965 0.75197 0.77640
 C3351 C 0.30406 0.73991 0.76521
 C3352 C 0.28897 0.74158 0.76142
 H3353 H 0.41409 0.75191 0.78759
 H3354 H 0.38596 0.75089 0.77193
 H3355 H 0.36492 0.72224 0.81812
 H3356 H 0.39316 0.72305 0.83341
 H3357 H 0.34917 0.71047 0.79222
 H3358 H 0.31959 0.71205 0.78007
 H3359 H 0.32821 0.76469 0.76329
 H3360 H 0.35764 0.76341 0.77571
 C3361 C 0.93591 0.24104 0.33036
 C3362 C 0.92259 0.24016 0.32168
 C3363 C 0.90647 0.23939 0.31169
 C3364 C 0.89796 0.25469 0.30682
 C3365 C 0.88192 0.25406 0.29793
 C3366 C 0.87411 0.23808 0.29379
 C3367 C 0.88289 0.22276 0.29851
 C3368 C 0.89895 0.22342 0.30740
 C3369 C 0.85660 0.23749 0.28528
 C3370 C 0.84425 0.22548 0.29148
 C3371 C 0.82738 0.22579 0.28453
 C3372 C 0.82261 0.23804 0.27123
 C3373 C 0.83491 0.24973 0.26459
 C3374 C 0.85179 0.24945 0.27153
 C3375 C 0.80481 0.23954 0.26560
 C3376 C 0.78975 0.24127 0.26173
 H3377 H 0.90359 0.26713 0.31017
 H3378 H 0.87540 0.26610 0.29478
 H3379 H 0.87734 0.21025 0.29534
 H3380 H 0.90541 0.21149 0.31110
 H3381 H 0.84743 0.21626 0.30222
 H3382 H 0.81793 0.21679 0.28990
 H3383 H 0.83136 0.25932 0.25436
 H3384 H 0.86103 0.25871 0.26627
 C3385 C 0.06746 0.25755 0.33170
 C3386 C 0.08088 0.25920 0.32328
 C3387 C 0.09713 0.26084 0.31358
 C3388 C 0.09922 0.25375 0.29576
 C3389 C 0.11530 0.25446 0.28682
 C3390 C 0.12954 0.26227 0.29560
 C3391 C 0.12721 0.26964 0.31338
 C3392 C 0.11113 0.26891 0.32229
 C3393 C 0.14694 0.26207 0.28669
 C3394 C 0.15806 0.27638 0.28829
 C3395 C 0.17486 0.27565 0.28105
 C3396 C 0.18077 0.26064 0.27208
 C3397 C 0.16968 0.24651 0.27002
 C3398 C 0.15288 0.24721 0.27723
 C3399 C 0.19858 0.25918 0.26635
 C3400 C 0.21365 0.25752 0.26237
 H3401 H 0.08848 0.24747 0.28887
 H3402 H 0.11660 0.24885 0.27306
 H3403 H 0.13794 0.27552 0.32066
 H3404 H 0.10971 0.27436 0.33612
 H3405 H 0.15382 0.28808 0.29529
 H3406 H 0.18336 0.28665 0.28281
 H3407 H 0.17416 0.23476 0.26327
 H3408 H 0.14477 0.23588 0.27598
 C3409 C 0.56706 0.75761 0.83040
 C3410 C 0.58051 0.75929 0.82206
 C3411 C 0.59682 0.76097 0.81247
 C3412 C 0.59901 0.75395 0.79464
 C3413 C 0.61513 0.75472 0.78581
 C3414 C 0.62932 0.76254 0.79471
 C3415 C 0.62688 0.76984 0.81250
 C3416 C 0.61076 0.76904 0.82130
 C3417 C 0.64676 0.76240 0.78590
 C3418 C 0.65785 0.77672 0.78763
 C3419 C 0.67470 0.77604 0.78050
 C3420 C 0.68068 0.76108 0.77149
 C3421 C 0.66962 0.74694 0.76929
 C3422 C 0.65278 0.74758 0.77640
 C3423 C 0.69852 0.75967 0.76584
 C3424 C 0.71360 0.75800 0.76191
 H3425 H 0.58832 0.74767 0.78766
 H3426 H 0.61652 0.74917 0.77203
 H3427 H 0.63756 0.77571 0.81987
 H3428 H 0.60925 0.77443 0.83515
 H3429 H 0.65356 0.78839 0.79466
 H3430 H 0.68316 0.78705 0.78235
 H3431 H 0.67415 0.73522 0.76251
 H3432 H 0.64470 0.73625 0.77506
 C3433 C 0.56507 0.24335 0.67013
 C3434 C 0.57826 0.24190 0.67893
 C3435 C 0.59421 0.24054 0.68917
 C3436 C 0.60172 0.22435 0.69244
 C3437 C 0.61761 0.22317 0.70165
 C3438 C 0.62621 0.23819 0.70771
 C3439 C 0.61840 0.25437 0.70457
 C3440 C 0.60255 0.25552 0.69537
 C3441 C 0.64355 0.23712 0.71657
 C3442 C 0.64803 0.24835 0.73125
 C3443 C 0.66478 0.24830 0.73853
 C3444 C 0.67729 0.23698 0.73131
 C3445 C 0.67284 0.22541 0.71709
 C3446 C 0.65610 0.22544 0.70979
 C3447 C 0.69502 0.23830 0.73726
 C3448 C 0.71005 0.23994 0.74132
 H3449 H 0.59540 0.21265 0.68772
 H3450 H 0.62316 0.21051 0.70401
 H3451 H 0.62478 0.26620 0.70877
 H3452 H 0.59691 0.26813 0.69283
 H3453 H 0.63862 0.25733 0.73697
 H3454 H 0.66809 0.25737 0.74947
 H3455 H 0.68246 0.21672 0.71124
 H3456 H 0.65317 0.21679 0.69834
 C3457 C 0.06452 0.74375 0.17069
 C3458 C 0.07776 0.74230 0.17940
 C3459 C 0.09379 0.74098 0.18951
 C3460 C 0.10151 0.72483 0.19247
 C3461 C 0.11747 0.72371 0.20152
 C3462 C 0.12595 0.73875 0.20774
 C3463 C 0.11794 0.75489 0.20491
 C3464 C 0.10200 0.75597 0.19586
 C3465 C 0.14337 0.73776 0.21642
 C3466 C 0.14785 0.74885 0.23123
 C3467 C 0.16466 0.74888 0.23835
 C3468 C 0.17723 0.73779 0.23085
 C3469 C 0.17279 0.72637 0.21649
 C3470 C 0.15599 0.72631 0.20934
 C3471 C 0.19499 0.73920 0.23667
 C3472 C 0.21003 0.74090 0.24064
 H3473 H 0.09528 0.71312 0.18762
 H3474 H 0.12318 0.71108 0.20365
 H3475 H 0.12422 0.76673 0.20922
 H3476 H 0.09622 0.76855 0.19356
 H3477 H 0.13840 0.75765 0.23716
 H3478 H 0.16796 0.75785 0.24940
 H3479 H 0.18246 0.71785 0.21043
 H3480 H 0.15307 0.71777 0.19780
   
