data_POSCAR
  _audit_creation_date              2014-09-24
  _audit_creation_method            'ToBaCCo'
  _symmetry_space_group_name_H-M    'P1'
  _symmetry_Int_Tables_number       1
  _symmetry_cell_setting            triclinic
  loop_
  _symmetry_equiv_pos_as_xyz
 x,y,z
_cell_length_a 93.5749
_cell_length_b 94.9972
_cell_length_c 100.6714
_cell_angle_alpha 90.078500
_cell_angle_beta 89.916500
_cell_angle_gamma 89.871400
loop_
  _atom_site_label
  _atom_site_type_symbol
  _atom_site_fract_x
  _atom_site_fract_y
  _atom_site_fract_z
N1 N 0.36282 0.32434 0.33621
 N2 N 0.35987 0.33183 0.32560
 C3 C 0.36909 0.32859 0.31585
 C4 C 0.37838 0.31841 0.32047
 C5 C 0.37414 0.31597 0.33350
 H6 H 0.36900 0.33331 0.30608
 H7 H 0.37864 0.30839 0.34032
 Cu8 Cu 0.34411 0.34487 0.32506
 Cu9 Cu 0.35102 0.32578 0.35228
 Cu10 Cu 0.32635 0.35327 0.35279
 N11 N 0.33289 0.36183 0.32622
 N12 N 0.32580 0.36525 0.33701
 C13 C 0.31841 0.37720 0.33469
 C14 C 0.32114 0.38151 0.32174
 C15 C 0.33043 0.37143 0.31675
 H16 H 0.31136 0.38216 0.34181
 H17 H 0.33489 0.37083 0.30686
 N18 N 0.32864 0.33981 0.36759
 N19 N 0.33789 0.32929 0.36740
 C20 C 0.33570 0.32119 0.37820
 C21 C 0.32447 0.32682 0.38551
 C22 C 0.32038 0.33869 0.37848
 H23 H 0.34129 0.31144 0.38016
 H24 H 0.31160 0.34568 0.38078
 H25 H 0.33261 0.33429 0.34426
 H26 H 0.34714 0.34683 0.34888
 N27 N 0.36911 0.83046 -0.16273
 N28 N 0.36736 0.83964 -0.17234
 C29 C 0.37690 0.83691 -0.18205
 C30 C 0.38515 0.82537 -0.17834
 C31 C 0.37986 0.82167 -0.16592
 H32 H 0.37752 0.84272 -0.19124
 H33 H 0.38296 0.81275 -0.15994
 Cu34 Cu 0.35213 0.85358 -0.17148
 Cu35 Cu 0.35609 0.82928 -0.14769
 Cu36 Cu 0.32812 0.85336 -0.14659
 N37 N 0.33699 0.86761 -0.17042
 N38 N 0.32737 0.86722 -0.16091
 C39 C 0.31768 0.87748 -0.16296
 C40 C 0.32146 0.88488 -0.17435
 C41 C 0.33385 0.87824 -0.17876
 H42 H 0.30858 0.87933 -0.15658
 H43 H 0.33989 0.88062 -0.18761
 N44 N 0.33091 0.83858 -0.13303
 N45 N 0.34175 0.82968 -0.13338
 C46 C 0.34044 0.82051 -0.12330
 C47 C 0.32814 0.82364 -0.11626
 C48 C 0.32242 0.83528 -0.12265
 H49 H 0.34772 0.81190 -0.12144
 H50 H 0.31249 0.84054 -0.12026
 H51 H 0.33842 0.83773 -0.15732
 H52 H 0.34980 0.85019 -0.14765
 N53 N 0.86593 0.33086 -0.16155
 N54 N 0.86500 0.34169 -0.16961
 C55 C 0.87447 0.34005 -0.17957
 C56 C 0.88184 0.32756 -0.17757
 C57 C 0.87617 0.32206 -0.16599
 H58 H 0.87585 0.34740 -0.18766
 H59 H 0.87900 0.31220 -0.16133
 Cu60 Cu 0.85142 0.35680 -0.16642
 Cu61 Cu 0.85321 0.32855 -0.14639
 Cu62 Cu 0.82557 0.35264 -0.14349
 N63 N 0.83460 0.36877 -0.16613
 N64 N 0.82452 0.36710 -0.15719
 C65 C 0.81411 0.37662 -0.15933
 C66 C 0.81778 0.38474 -0.17029
 C67 C 0.83094 0.37937 -0.17431
 H68 H 0.80460 0.37748 -0.15329
 H69 H 0.83735 0.38264 -0.18268
 N70 N 0.82863 0.33724 -0.13066
 N71 N 0.83918 0.32807 -0.13180
 C72 C 0.83794 0.31836 -0.12215
 C73 C 0.82603 0.32154 -0.11454
 C74 C 0.82043 0.33362 -0.12020
 H75 H 0.84500 0.30944 -0.12095
 H76 H 0.81071 0.33897 -0.11730
 H77 H 0.83672 0.33908 -0.15588
 H78 H 0.84741 0.34937 -0.14353
 N79 N 0.86779 0.82897 0.33589
 N80 N 0.86544 0.83908 0.32725
 C81 C 0.87482 0.83781 0.31716
 C82 C 0.88355 0.82636 0.31967
 C83 C 0.87880 0.82102 0.33165
 H84 H 0.87525 0.84462 0.30857
 H85 H 0.88268 0.81168 0.33661
 Cu86 Cu 0.85011 0.85259 0.33003
 Cu87 Cu 0.85563 0.82610 0.35137
 Cu88 Cu 0.82798 0.85008 0.35615
 N89 N 0.83483 0.86615 0.33281
 N90 N 0.82603 0.86497 0.34293
 C91 C 0.81598 0.87510 0.34210
 C92 C 0.81866 0.88321 0.33088
 C93 C 0.83083 0.87718 0.32532
 H94 H 0.80731 0.87628 0.34910
 H95 H 0.83614 0.88026 0.31626
 N96 N 0.83177 0.83424 0.36834
 N97 N 0.84211 0.82499 0.36636
 C98 C 0.84114 0.81479 0.37558
 C99 C 0.82974 0.81780 0.38384
 C100 C 0.82408 0.83024 0.37901
 H101 H 0.84799 0.80564 0.37609
 H102 H 0.81457 0.83552 0.38259
 H103 H 0.83744 0.83546 0.34369
 H104 H 0.84961 0.84692 0.35360
 N105 N 0.63248 0.66982 0.33698
 N106 N 0.63424 0.65932 0.32863
 C107 C 0.62452 0.66044 0.31882
 C108 C 0.61613 0.67218 0.32126
 C109 C 0.62146 0.67784 0.33290
 H110 H 0.62375 0.65338 0.31042
 H111 H 0.61800 0.68745 0.33771
 Cu112 Cu 0.64943 0.64554 0.33089
 Cu113 Cu 0.64524 0.67292 0.35188
 Cu114 Cu 0.67346 0.64967 0.35563
 N115 N 0.66590 0.63321 0.33279
 N116 N 0.67541 0.63500 0.34223
 C117 C 0.68617 0.62573 0.34046
 C118 C 0.68315 0.61762 0.32938
 C119 C 0.67021 0.62267 0.32478
 H120 H 0.69559 0.62508 0.34664
 H121 H 0.66471 0.61936 0.31587
 N122 N 0.66967 0.66525 0.36812
 N123 N 0.65918 0.67437 0.36640
 C124 C 0.66009 0.68446 0.37577
 C125 C 0.67161 0.68149 0.38387
 C126 C 0.67741 0.66920 0.37877
 H127 H 0.65302 0.69344 0.37654
 H128 H 0.68696 0.66393 0.38220
 H129 H 0.66286 0.66330 0.34308
 H130 H 0.65161 0.65218 0.35427
 N131 N 0.63272 0.17327 -0.16336
 N132 N 0.63344 0.16291 -0.17199
 C133 C 0.62384 0.16530 -0.18174
 C134 C 0.61681 0.17787 -0.17905
 C135 C 0.62275 0.18256 -0.16727
 H136 H 0.62235 0.15862 -0.19032
 H137 H 0.62008 0.19209 -0.16194
 Cu138 Cu 0.64733 0.14767 -0.16987
 Cu139 Cu 0.64501 0.17442 -0.14789
 Cu140 Cu 0.67058 0.14850 -0.14419
 N141 N 0.66245 0.13360 -0.16787
 N142 N 0.67139 0.13403 -0.15783
 C143 C 0.68095 0.12353 -0.15904
 C144 C 0.67798 0.11597 -0.17053
 C145 C 0.66606 0.12274 -0.17585
 H146 H 0.68958 0.12179 -0.15213
 H147 H 0.66059 0.12022 -0.18498
 N148 N 0.66813 0.16400 -0.13139
 N149 N 0.65835 0.17387 -0.13284
 C150 C 0.65970 0.18333 -0.12297
 C151 C 0.67094 0.17929 -0.11489
 C152 C 0.67599 0.16692 -0.12052
 H153 H 0.65314 0.19263 -0.12191
 H154 H 0.68506 0.16080 -0.11724
 H155 H 0.66190 0.16357 -0.15655
 H156 H 0.64916 0.15308 -0.14621
 N157 N 0.13077 0.67277 -0.16051
 N158 N 0.13202 0.66332 -0.16998
 C159 C 0.12256 0.66635 -0.17969
 C160 C 0.11512 0.67842 -0.17607
 C161 C 0.12059 0.68208 -0.16381
 H162 H 0.12166 0.66066 -0.18896
 H163 H 0.11774 0.69116 -0.15790
 Cu164 Cu 0.14687 0.64891 -0.16881
 Cu165 Cu 0.14332 0.67359 -0.14521
 Cu166 Cu 0.16975 0.64819 -0.14306
 N167 N 0.16161 0.63443 -0.16746
 N168 N 0.17045 0.63431 -0.15732
 C169 C 0.18008 0.62395 -0.15902
 C170 C 0.17721 0.61714 -0.17088
 C171 C 0.16534 0.62405 -0.17595
 H172 H 0.18875 0.62178 -0.15224
 H173 H 0.16020 0.62205 -0.18538
 N174 N 0.16721 0.66316 -0.12965
 N175 N 0.15704 0.67274 -0.13049
 C176 C 0.15859 0.68206 -0.12054
 C177 C 0.17037 0.67828 -0.11305
 C178 C 0.17553 0.66616 -0.11910
 H179 H 0.15190 0.69123 -0.11914
 H180 H 0.18506 0.66040 -0.11642
 H181 H 0.16079 0.66408 -0.15422
 H182 H 0.14830 0.65238 -0.14490
 N183 N 0.13348 0.17118 0.33960
 N184 N 0.13377 0.16105 0.33068
 C185 C 0.12381 0.16366 0.32138
 C186 C 0.11682 0.17603 0.32462
 C187 C 0.12317 0.18049 0.33632
 H188 H 0.12191 0.15714 0.31277
 H189 H 0.12088 0.19008 0.34172
 Cu190 Cu 0.14749 0.14567 0.33127
 Cu191 Cu 0.14724 0.17197 0.35418
 Cu192 Cu 0.17242 0.14527 0.35519
 N193 N 0.16253 0.13146 0.33166
 N194 N 0.17211 0.13132 0.34117
 C195 C 0.18193 0.12135 0.33854
 C196 C 0.17840 0.11487 0.32669
 C197 C 0.16593 0.12149 0.32264
 H198 H 0.19128 0.11936 0.34455
 H199 H 0.16028 0.11975 0.31342
 N200 N 0.17134 0.16023 0.36855
 N201 N 0.16210 0.17072 0.36814
 C202 C 0.16546 0.18006 0.37780
 C203 C 0.17747 0.17517 0.38443
 C204 C 0.18073 0.16254 0.37836
 H205 H 0.16014 0.19005 0.37937
 H206 H 0.18974 0.15582 0.38057
 H207 H 0.16294 0.16131 0.34399
 H208 H 0.15076 0.15076 0.35484
 N209 N 0.63159 0.32919 0.66130
 N210 N 0.63344 0.33899 0.67036
 C211 C 0.62360 0.33732 0.68002
 C212 C 0.61510 0.32594 0.67675
 C213 C 0.62046 0.32108 0.66479
 H214 H 0.62281 0.34374 0.68887
 H215 H 0.61697 0.31187 0.65937
 Cu216 Cu 0.64892 0.35245 0.66877
 Cu217 Cu 0.64466 0.32670 0.64645
 Cu218 Cu 0.67276 0.35035 0.64377
 N219 N 0.66431 0.36596 0.66701
 N220 N 0.67382 0.36496 0.65743
 C221 C 0.68375 0.37506 0.65909
 C222 C 0.68015 0.38287 0.67024
 C223 C 0.66775 0.37680 0.67497
 H224 H 0.69296 0.37652 0.65275
 H225 H 0.66200 0.37973 0.68388
 N226 N 0.66964 0.33481 0.63100
 N227 N 0.65897 0.32582 0.63215
 C228 C 0.66015 0.31596 0.62263
 C229 C 0.67210 0.31883 0.61504
 C230 C 0.67783 0.33092 0.62057
 H231 H 0.65299 0.30714 0.62143
 H232 H 0.68758 0.33612 0.61757
 H233 H 0.66244 0.33571 0.65533
 H234 H 0.65103 0.34759 0.64508
 N235 N 0.63465 0.82580 1.15887
 N236 N 0.63444 0.83572 1.16796
 C237 C 0.62415 0.83275 1.17692
 C238 C 0.61761 0.82024 1.17327
 C239 C 0.62456 0.81620 1.16171
 H240 H 0.62203 0.83887 1.18577
 H241 H 0.62262 0.80681 1.15592
 Cu242 Cu 0.64842 0.85090 1.16794
 Cu243 Cu 0.64858 0.82548 1.14454
 Cu244 Cu 0.67487 0.85097 1.14493
 N245 N 0.66384 0.86464 1.16828
 N246 N 0.67424 0.86446 1.15950
 C247 C 0.68381 0.87449 1.16264
 C248 C 0.67918 0.88135 1.17402
 C249 C 0.66643 0.87482 1.17729
 H250 H 0.69351 0.87651 1.15712
 H251 H 0.65985 0.87693 1.18589
 N252 N 0.67364 0.83644 1.13096
 N253 N 0.66353 0.82679 1.13084
 C254 C 0.66580 0.81802 1.12054
 C255 C 0.67794 0.82229 1.11381
 C256 C 0.68262 0.83405 1.12069
 H257 H 0.65921 0.80902 1.11826
 H258 H 0.69216 0.84006 1.11867
 H259 H 0.66440 0.83547 1.15546
 H260 H 0.65327 0.84685 1.14437
 N261 N 0.13123 0.33039 1.16164
 N262 N 0.12861 0.34173 1.16871
 C263 C 0.11805 0.33898 1.17743
 C264 C 0.11384 0.32510 1.17573
 C265 C 0.12243 0.32004 1.16556
 H266 H 0.11425 0.34632 1.18487
 H267 H 0.12251 0.30953 1.16147
 Cu268 Cu 0.14040 0.35832 1.16664
 Cu269 Cu 0.14637 0.32959 1.14843
 Cu270 Cu 0.16831 0.35890 1.14552
 N271 N 0.15590 0.37160 1.16873
 N272 N 0.16688 0.37196 1.16057
 C273 C 0.17620 0.38177 1.16490
 C274 C 0.17081 0.38763 1.17653
 C275 C 0.15789 0.38094 1.17856
 H276 H 0.18640 0.38398 1.16030
 H277 H 0.15058 0.38248 1.18676
 N278 N 0.17043 0.34193 1.13416
 N279 N 0.16213 0.33080 1.13557
 C280 C 0.16637 0.32074 1.12707
 C281 C 0.17795 0.32560 1.11993
 C282 C 0.18021 0.33917 1.12461
 H283 H 0.16137 0.31055 1.12610
 H284 H 0.18860 0.34629 1.12158
 H285 H 0.15967 0.34410 1.15764
 H286 H 0.14773 0.35075 1.14426
 N287 N 0.13603 0.83157 0.66145
 N288 N 0.13715 0.84162 0.67038
 C289 C 0.12759 0.83937 0.68013
 C290 C 0.11998 0.82733 0.67716
 C291 C 0.12556 0.82267 0.66518
 H292 H 0.12634 0.84592 0.68885
 H293 H 0.12263 0.81321 0.65987
 Cu294 Cu 0.15130 0.85646 0.66902
 Cu295 Cu 0.14905 0.83019 0.64631
 Cu296 Cu 0.17519 0.85586 0.64422
 N297 N 0.16631 0.87052 0.66772
 N298 N 0.17563 0.87020 0.65797
 C299 C 0.18529 0.88048 0.65980
 C300 C 0.18191 0.88766 0.67137
 C301 C 0.16973 0.88106 0.67611
 H302 H 0.19430 0.88236 0.65333
 H303 H 0.16417 0.88335 0.68528
 N304 N 0.17324 0.84065 0.63114
 N305 N 0.16337 0.83078 0.63181
 C306 C 0.16558 0.82148 0.62185
 C307 C 0.17747 0.82570 0.61464
 C308 C 0.18193 0.83792 0.62082
 H309 H 0.15940 0.81202 0.62030
 H310 H 0.19108 0.84424 0.61816
 H311 H 0.16552 0.84016 0.65574
 H312 H 0.15337 0.85122 0.64535
 N313 N 0.36255 0.67295 0.65842
 N314 N 0.36324 0.66332 0.66777
 C315 C 0.37397 0.66658 0.67615
 C316 C 0.38024 0.67896 0.67185
 C317 C 0.37270 0.68270 0.66058
 H318 H 0.37675 0.66066 0.68494
 H319 H 0.37448 0.69182 0.65440
 Cu320 Cu 0.34935 0.64810 0.66856
 Cu321 Cu 0.34857 0.67229 0.64405
 Cu322 Cu 0.32474 0.64443 0.64475
 N323 N 0.33553 0.63275 0.66912
 N324 N 0.32608 0.63142 0.65958
 C325 C 0.31707 0.62091 0.66257
 C326 C 0.32093 0.61531 0.67472
 C327 C 0.33280 0.62303 0.67859
 H328 H 0.30804 0.61790 0.65653
 H329 H 0.33848 0.62212 0.68789
 N330 N 0.32490 0.65864 0.63059
 N331 N 0.33367 0.66949 0.63042
 C332 C 0.33024 0.67783 0.62005
 C333 C 0.31868 0.67196 0.61346
 C334 C 0.31571 0.65976 0.62041
 H335 H 0.33541 0.68770 0.61776
 H336 H 0.30723 0.65238 0.61838
 H337 H 0.33314 0.66181 0.65464
 H338 H 0.34595 0.65097 0.64472
 N339 N 0.36990 0.17347 1.16095
 N340 N 0.36890 0.16363 1.17006
 C341 C 0.37860 0.16622 1.17967
 C342 C 0.38598 0.17839 1.17638
 C343 C 0.38016 0.18260 1.16440
 H344 H 0.37981 0.16008 1.18864
 H345 H 0.38296 0.19183 1.15872
 Cu346 Cu 0.35416 0.14918 1.16873
 Cu347 Cu 0.35708 0.17473 1.14588
 Cu348 Cu 0.33051 0.14963 1.14339
 N349 N 0.33931 0.13494 1.16705
 N350 N 0.33007 0.13530 1.15722
 C351 C 0.32050 0.12490 1.15884
 C352 C 0.32386 0.11757 1.17031
 C353 C 0.33591 0.12423 1.17524
 H354 H 0.31161 0.12299 1.15224
 H355 H 0.34142 0.12182 1.18439
 N356 N 0.33284 0.16500 1.13038
 N357 N 0.34314 0.17440 1.13132
 C358 C 0.34165 0.18390 1.12154
 C359 C 0.32979 0.18044 1.11404
 C360 C 0.32450 0.16832 1.11991
 H361 H 0.34852 0.19291 1.12019
 H362 H 0.31493 0.16270 1.11711
 H363 H 0.33979 0.16495 1.15499
 H364 H 0.35198 0.15350 1.14496
 N365 N 0.86570 0.67238 1.16450
 N366 N 0.86143 0.66379 1.17390
 C367 C 0.87012 0.66498 1.18445
 C368 C 0.88047 0.67488 1.18157
 C369 C 0.87738 0.67933 1.16876
 H370 H 0.86885 0.65922 1.19363
 H371 H 0.88280 0.68749 1.16324
 Cu372 Cu 0.84450 0.65237 1.17191
 Cu373 Cu 0.85471 0.67479 1.14813
 Cu374 Cu 0.82678 0.65132 1.14293
 N375 N 0.83155 0.63720 1.16770
 N376 N 0.82409 0.63700 1.15666
 C377 C 0.81517 0.62586 1.15695
 C378 C 0.81745 0.61862 1.16872
 C379 C 0.82792 0.62613 1.17525
 H380 H 0.80759 0.62323 1.14924
 H381 H 0.83216 0.62401 1.18504
 N382 N 0.83153 0.66662 1.13037
 N383 N 0.84219 0.67547 1.13234
 C384 C 0.84210 0.68520 1.12264
 C385 C 0.83085 0.68240 1.11411
 C386 C 0.82444 0.67048 1.11931
 H387 H 0.84944 0.69394 1.12205
 H388 H 0.81490 0.66539 1.11566
 H389 H 0.83501 0.66741 1.15444
 H390 H 0.84796 0.65400 1.14807
 N391 N 0.86247 0.17319 0.65812
 N392 N 0.86392 0.16345 0.66728
 C393 C 0.87413 0.16750 0.67591
 C394 C 0.87920 0.18054 0.67197
 C395 C 0.87155 0.18379 0.66065
 H396 H 0.87727 0.16166 0.68465
 H397 H 0.87249 0.19321 0.65470
 Cu398 Cu 0.85173 0.14684 0.66757
 Cu399 Cu 0.84892 0.17167 0.64359
 Cu400 Cu 0.82518 0.14410 0.64508
 N401 N 0.83659 0.13290 0.66937
 N402 N 0.82641 0.13191 0.66045
 C403 C 0.81705 0.12200 0.66423
 C404 C 0.82149 0.11640 0.67621
 C405 C 0.83402 0.12356 0.67917
 H406 H 0.80753 0.11931 0.65875
 H407 H 0.84045 0.12248 0.68803
 N408 N 0.82554 0.15755 0.63032
 N409 N 0.83448 0.16823 0.62978
 C410 C 0.83129 0.17617 0.61910
 C411 C 0.81971 0.17023 0.61266
 C412 C 0.81641 0.15840 0.62004
 H413 H 0.83653 0.18594 0.61659
 H414 H 0.80771 0.15118 0.61831
 H415 H 0.83455 0.16081 0.65515
 H416 H 0.84651 0.15020 0.64402
 N417 N 0.32297 0.36474 0.65995
 N418 N 0.33411 0.36635 0.66773
 C419 C 0.33111 0.37635 0.67686
 C420 C 0.31727 0.38110 0.67470
 C421 C 0.31250 0.37350 0.66387
 H422 H 0.33824 0.37957 0.68474
 H423 H 0.30214 0.37426 0.65920
 Cu424 Cu 0.35101 0.35454 0.66549
 Cu425 Cu 0.32263 0.35137 0.64539
 Cu426 Cu 0.35071 0.32785 0.64312
 N427 N 0.36506 0.33940 0.66590
 N428 N 0.36508 0.32919 0.65707
 C429 C 0.37544 0.31990 0.66014
 C430 C 0.38223 0.32444 0.67159
 C431 C 0.37534 0.33689 0.67493
 H432 H 0.37736 0.31016 0.65485
 H433 H 0.37738 0.34347 0.68349
 N434 N 0.33488 0.32833 0.63016
 N435 N 0.32410 0.33722 0.63126
 C436 C 0.31450 0.33449 0.62170
 C437 C 0.31937 0.32330 0.61418
 C438 C 0.33240 0.31968 0.61977
 H439 H 0.30453 0.34009 0.62043
 H440 H 0.33921 0.31100 0.61686
 H441 H 0.33571 0.33703 0.65524
 H442 H 0.34455 0.34865 0.64267
 N443 N 0.32735 0.86598 0.15750
 N444 N 0.33709 0.86553 0.16688
 C445 C 0.33391 0.87532 0.17617
 C446 C 0.32144 0.88208 0.17238
 C447 C 0.31763 0.87590 0.16050
 H448 H 0.33962 0.87679 0.18540
 H449 H 0.30814 0.87809 0.15474
 Cu450 Cu 0.35162 0.85080 0.16676
 Cu451 Cu 0.32677 0.85267 0.14288
 Cu452 Cu 0.35213 0.82610 0.14266
 N453 N 0.36602 0.83600 0.16641
 N454 N 0.36588 0.82618 0.15720
 C455 C 0.37596 0.81650 0.16000
 C456 C 0.38283 0.82050 0.17156
 C457 C 0.37629 0.83295 0.17533
 H458 H 0.37792 0.80709 0.15422
 H459 H 0.37834 0.83887 0.18431
 N460 N 0.33731 0.82799 0.12882
 N461 N 0.32781 0.83827 0.12891
 C462 C 0.31878 0.83652 0.11869
 C463 C 0.32265 0.82450 0.11180
 C464 C 0.33454 0.81940 0.11846
 H465 H 0.30985 0.84337 0.11656
 H466 H 0.34039 0.80986 0.11622
 H467 H 0.33607 0.83611 0.15309
 H468 H 0.34824 0.84739 0.14299
 N469 N 0.82637 0.36539 0.15958
 N470 N 0.83736 0.36588 0.16767
 C471 C 0.83473 0.37556 0.17720
 C472 C 0.82128 0.38124 0.17496
 C473 C 0.81636 0.37455 0.16369
 H474 H 0.84175 0.37782 0.18546
 H475 H 0.80611 0.37607 0.15896
 Cu476 Cu 0.85339 0.35293 0.16547
 Cu477 Cu 0.82529 0.35248 0.14475
 Cu478 Cu 0.85073 0.32632 0.14303
 N479 N 0.86628 0.33681 0.16567
 N480 N 0.86498 0.32637 0.15716
 C481 C 0.87451 0.31625 0.16022
 C482 C 0.88223 0.32057 0.17122
 C483 C 0.87675 0.33371 0.17437
 H484 H 0.87557 0.30638 0.15495
 H485 H 0.87968 0.34023 0.18274
 N486 N 0.83537 0.32838 0.12972
 N487 N 0.82582 0.33858 0.13041
 C488 C 0.81639 0.33710 0.12047
 C489 C 0.82002 0.32531 0.11314
 C490 C 0.83220 0.32007 0.11925
 H491 H 0.80735 0.34397 0.11886
 H492 H 0.83799 0.31061 0.11658
 H493 H 0.83679 0.33692 0.15496
 H494 H 0.84714 0.34752 0.14253
 N495 N 0.82164 0.86739 0.65627
 N496 N 0.83142 0.86875 0.66554
 C497 C 0.82796 0.87971 0.67341
 C498 C 0.81523 0.88540 0.66897
 C499 C 0.81147 0.87728 0.65809
 H500 H 0.83391 0.88296 0.68208
 H501 H 0.80198 0.87839 0.65206
 Cu502 Cu 0.84695 0.85525 0.66722
 Cu503 Cu 0.82281 0.85275 0.64268
 Cu504 Cu 0.85119 0.82922 0.64510
 N505 N 0.86253 0.84179 0.66878
 N506 N 0.86423 0.83169 0.66001
 C507 C 0.87515 0.82337 0.66379
 C508 C 0.88059 0.82851 0.67563
 C509 C 0.87233 0.84026 0.67846
 H510 H 0.87837 0.81384 0.65870
 H511 H 0.87316 0.84698 0.68709
 N512 N 0.83687 0.82843 0.63081
 N513 N 0.82600 0.83726 0.62990
 C514 C 0.81791 0.83356 0.61939
 C515 C 0.82391 0.82177 0.61347
 C516 C 0.83594 0.81888 0.62098
 H517 H 0.80812 0.83878 0.61651
 H518 H 0.84340 0.81033 0.61947
 H519 H 0.83355 0.83819 0.65421
 H520 H 0.84470 0.85006 0.64369
 N521 N 0.67516 0.63427 0.65609
 N522 N 0.66477 0.63278 0.66478
 C523 C 0.66817 0.62231 0.67321
 C524 C 0.68144 0.61702 0.66967
 C525 C 0.68556 0.62489 0.65876
 H526 H 0.66169 0.61911 0.68158
 H527 H 0.69540 0.62389 0.65320
 Cu528 Cu 0.64814 0.64513 0.66482
 Cu529 Cu 0.67455 0.64827 0.64200
 Cu530 Cu 0.64721 0.67258 0.64370
 N531 N 0.63447 0.66048 0.66702
 N532 N 0.63421 0.67106 0.65865
 C533 C 0.62429 0.68042 0.66257
 C534 C 0.61794 0.67555 0.67410
 C535 C 0.62464 0.66277 0.67661
 H536 H 0.62204 0.69017 0.65748
 H537 H 0.62287 0.65591 0.68501
 N538 N 0.66140 0.67242 0.62933
 N539 N 0.67195 0.66322 0.62866
 C540 C 0.68027 0.66638 0.61814
 C541 C 0.67471 0.67821 0.61195
 C542 C 0.66272 0.68167 0.61932
 H543 H 0.68996 0.66084 0.61549
 H544 H 0.65560 0.69046 0.61767
 H545 H 0.66338 0.66220 0.65385
 H546 H 0.65277 0.65149 0.64173
 N547 N 0.67566 0.13199 0.15867
 N548 N 0.66397 0.12907 0.16533
 C549 C 0.66650 0.11808 0.17345
 C550 C 0.68066 0.11404 0.17191
 C551 C 0.68610 0.12312 0.16244
 H552 H 0.65882 0.11379 0.18037
 H553 H 0.69692 0.12340 0.15866
 Cu554 Cu 0.64716 0.14096 0.16371
 Cu555 Cu 0.67644 0.14695 0.14555
 Cu556 Cu 0.64711 0.16913 0.14326
 N557 N 0.63429 0.15677 0.16637
 N558 N 0.63438 0.16794 0.15867
 C559 C 0.62483 0.17738 0.16338
 C560 C 0.61847 0.17181 0.17469
 C561 C 0.62475 0.15869 0.17618
 H562 H 0.62304 0.18769 0.15915
 H563 H 0.62267 0.15107 0.18390
 N564 N 0.66409 0.17088 0.13158
 N565 N 0.67529 0.16251 0.13273
 C566 C 0.68521 0.16628 0.12377
 C567 C 0.68017 0.17766 0.11658
 C568 C 0.66665 0.18026 0.12178
 H569 H 0.69532 0.16097 0.12246
 H570 H 0.65932 0.18846 0.11878
 H571 H 0.66165 0.16021 0.15529
 H572 H 0.65470 0.14885 0.14164
 N573 N 0.17396 0.63317 0.15654
 N574 N 0.16408 0.63416 0.16577
 C575 C 0.16692 0.62464 0.17537
 C576 C 0.17930 0.61741 0.17195
 C577 C 0.18337 0.62310 0.15990
 H578 H 0.16089 0.62357 0.18448
 H579 H 0.19275 0.62044 0.15415
 Cu580 Cu 0.14927 0.64866 0.16491
 Cu581 Cu 0.17505 0.64586 0.14155
 Cu582 Cu 0.15136 0.67369 0.14101
 N583 N 0.13650 0.66494 0.16457
 N584 N 0.13777 0.67486 0.15556
 C585 C 0.12841 0.68526 0.15824
 C586 C 0.12076 0.68165 0.16949
 C587 C 0.12614 0.66865 0.17322
 H588 H 0.12728 0.69477 0.15245
 H589 H 0.12310 0.66263 0.18188
 N590 N 0.16582 0.67064 0.12707
 N591 N 0.17465 0.65981 0.12721
 C592 C 0.18373 0.66087 0.11690
 C593 C 0.18053 0.67298 0.10989
 C594 C 0.16905 0.67889 0.11660
 H595 H 0.19234 0.65358 0.11490
 H596 H 0.16389 0.68881 0.11440
 H597 H 0.16616 0.66256 0.15199
 H598 H 0.15372 0.65212 0.14124
 N599 N 0.17331 0.13529 0.65939
 N600 N 0.16265 0.13594 0.66792
 C601 C 0.16484 0.12649 0.67762
 C602 C 0.17756 0.11948 0.67516
 C603 C 0.18262 0.12529 0.66342
 H604 H 0.15781 0.12499 0.68602
 H605 H 0.19259 0.12286 0.65848
 Cu606 Cu 0.14751 0.14987 0.66629
 Cu607 Cu 0.17462 0.14807 0.64420
 Cu608 Cu 0.14738 0.17273 0.64111
 N609 N 0.13240 0.16387 0.66452
 N610 N 0.13252 0.17288 0.65463
 C611 C 0.12180 0.18218 0.65627
 C612 C 0.11452 0.17888 0.66784
 C613 C 0.12155 0.16714 0.67278
 H614 H 0.11977 0.19098 0.64974
 H615 H 0.11941 0.16187 0.68209
 N616 N 0.16325 0.17113 0.62840
 N617 N 0.17382 0.16198 0.62955
 C618 C 0.18342 0.16440 0.61977
 C619 C 0.17866 0.17568 0.61223
 C620 C 0.16582 0.17954 0.61796
 H621 H 0.19340 0.15878 0.61855
 H622 H 0.15895 0.18809 0.61489
 H623 H 0.16352 0.16430 0.65297
 H624 H 0.15309 0.15159 0.64271
 N625 N 0.33021 0.63412 0.33723
 N626 N 0.34074 0.63685 0.32899
 C627 C 0.34042 0.62747 0.31892
 C628 C 0.32918 0.61828 0.32110
 C629 C 0.32297 0.62283 0.33282
 H630 H 0.34766 0.62745 0.31054
 H631 H 0.31347 0.61862 0.33745
 Cu632 Cu 0.35355 0.65268 0.33192
 Cu633 Cu 0.32589 0.64601 0.35242
 Cu634 Cu 0.34694 0.67546 0.35705
 N635 N 0.36480 0.66967 0.33447
 N636 N 0.36190 0.67876 0.34396
 C637 C 0.37066 0.68993 0.34277
 C638 C 0.37966 0.68762 0.33207
 C639 C 0.37564 0.67467 0.32704
 H640 H 0.37048 0.69907 0.34919
 H641 H 0.37995 0.66956 0.31830
 N642 N 0.33130 0.67027 0.36925
 N643 N 0.32309 0.65919 0.36727
 C644 C 0.31280 0.65895 0.37663
 C645 C 0.31470 0.67034 0.38500
 C646 C 0.32657 0.67726 0.38006
 H647 H 0.30442 0.65116 0.37726
 H648 H 0.33103 0.68699 0.38376
 H649 H 0.33427 0.66423 0.34411
 H650 H 0.34633 0.65390 0.35524
 N651 N 0.32554 0.13742 0.84533
 N652 N 0.33529 0.13629 0.83596
 C653 C 0.33176 0.12557 0.82783
 C654 C 0.31906 0.11977 0.83227
 C655 C 0.31545 0.12756 0.84342
 H656 H 0.33749 0.12274 0.81888
 H657 H 0.30596 0.12639 0.84946
 Cu658 Cu 0.35045 0.15021 0.83415
 Cu659 Cu 0.32598 0.15223 0.85875
 Cu660 Cu 0.35290 0.17695 0.85584
 N661 N 0.36549 0.16434 0.83266
 N662 N 0.36618 0.17481 0.84118
 C663 C 0.37632 0.18389 0.83728
 C664 C 0.38233 0.17895 0.82563
 C665 C 0.37526 0.16645 0.82299
 H666 H 0.37876 0.19367 0.84229
 H667 H 0.37650 0.15990 0.81427
 N668 N 0.33855 0.17748 0.87005
 N669 N 0.32833 0.16803 0.87133
 C670 C 0.31991 0.17174 0.88167
 C671 C 0.32502 0.18421 0.88695
 C672 C 0.33684 0.18749 0.87937
 H673 H 0.31040 0.16617 0.88474
 H674 H 0.34355 0.19667 0.88045
 H675 H 0.33585 0.16688 0.84673
 H676 H 0.34758 0.15587 0.85757
 N677 N 0.82464 0.63505 0.83665
 N678 N 0.83238 0.63795 0.82614
 C679 C 0.83013 0.62822 0.81674
 C680 C 0.82026 0.61859 0.82143
 C681 C 0.81701 0.62328 0.83420
 H682 H 0.83513 0.62847 0.80708
 H683 H 0.80942 0.61874 0.84106
 Cu684 Cu 0.84388 0.65465 0.82499
 Cu685 Cu 0.82488 0.64755 0.85215
 Cu686 Cu 0.84981 0.67489 0.85166
 N687 N 0.85972 0.66748 0.82565
 N688 N 0.86211 0.67579 0.83583
 C689 C 0.87344 0.68407 0.83294
 C690 C 0.87831 0.68064 0.82024
 C691 C 0.86935 0.66995 0.81610
 H692 H 0.87763 0.69210 0.83947
 H693 H 0.86961 0.66433 0.80678
 N694 N 0.83622 0.67182 0.86655
 N695 N 0.82688 0.66140 0.86669
 C696 C 0.81843 0.66277 0.87744
 C697 C 0.82252 0.67464 0.88444
 C698 C 0.83391 0.68007 0.87727
 H699 H 0.80957 0.65591 0.87970
 H700 H 0.83954 0.68976 0.87928
 H701 H 0.83172 0.66614 0.84338
 H702 H 0.84593 0.65368 0.84897
 N703 N 0.82578 0.13229 0.34097
 N704 N 0.83650 0.13134 0.33257
 C705 C 0.83353 0.12152 0.32337
 C706 C 0.82021 0.11590 0.32608
 C707 C 0.81560 0.12298 0.33739
 H708 H 0.84053 0.11881 0.31520
 H709 H 0.80542 0.12182 0.34236
 Cu710 Cu 0.85320 0.14331 0.33383
 Cu711 Cu 0.82577 0.14605 0.35550
 Cu712 Cu 0.85334 0.17036 0.35514
 N713 N 0.86658 0.15876 0.33186
 N714 N 0.86671 0.16923 0.34038
 C715 C 0.87654 0.17871 0.33657
 C716 C 0.88295 0.17397 0.32499
 C717 C 0.87632 0.16124 0.32227
 H718 H 0.87845 0.18862 0.34155
 H719 H 0.87825 0.15438 0.31388
 N720 N 0.83872 0.16982 0.36915
 N721 N 0.82798 0.16084 0.36926
 C722 C 0.81921 0.16412 0.37948
 C723 C 0.82469 0.17580 0.38599
 C724 C 0.83712 0.17898 0.37922
 H725 H 0.80926 0.15883 0.38164
 H726 H 0.84430 0.18760 0.38125
 H727 H 0.83740 0.16020 0.34444
 H728 H 0.84742 0.14929 0.35678
 N729 N 0.67769 0.36842 0.34426
 N730 N 0.66813 0.36998 0.33481
 C731 C 0.67229 0.38054 0.32674
 C732 C 0.68521 0.38573 0.33134
 C733 C 0.68827 0.37778 0.34247
 H734 H 0.66670 0.38382 0.31787
 H735 H 0.69761 0.37864 0.34873
 Cu736 Cu 0.65180 0.35733 0.33326
 Cu737 Cu 0.67601 0.35423 0.35803
 Cu738 Cu 0.64787 0.33099 0.35542
 N739 N 0.63692 0.34307 0.33139
 N740 N 0.63531 0.33304 0.34024
 C741 C 0.62467 0.32446 0.33641
 C742 C 0.61930 0.32924 0.32445
 C743 C 0.62736 0.34110 0.32154
 H744 H 0.62152 0.31503 0.34165
 H745 H 0.62649 0.34766 0.31281
 N746 N 0.66165 0.33045 0.37011
 N747 N 0.67249 0.33923 0.37109
 C748 C 0.68050 0.33555 0.38164
 C749 C 0.67445 0.32383 0.38754
 C750 C 0.66248 0.32095 0.37997
 H751 H 0.69038 0.34060 0.38447
 H752 H 0.65512 0.31233 0.38132
 H753 H 0.66532 0.34013 0.34606
 H754 H 0.65418 0.35188 0.35687
 N755 N 0.67694 0.86056 0.83808
 N756 N 0.66862 0.85884 0.82771
 C757 C 0.67173 0.86853 0.81851
 C758 C 0.68283 0.87677 0.82309
 C759 C 0.68582 0.87149 0.83569
 H760 H 0.66630 0.86938 0.80908
 H761 H 0.69403 0.87508 0.84243
 Cu762 Cu 0.65514 0.84362 0.82626
 Cu763 Cu 0.67541 0.84792 0.85345
 Cu764 Cu 0.64737 0.82375 0.85258
 N765 N 0.63815 0.83217 0.82671
 N766 N 0.63502 0.82422 0.83695
 C767 C 0.62320 0.81669 0.83410
 C768 C 0.61883 0.82009 0.82132
 C769 C 0.62854 0.83006 0.81704
 H770 H 0.61852 0.80890 0.84061
 H771 H 0.62880 0.83523 0.80749
 N772 N 0.66108 0.82498 0.86741
 N773 N 0.67172 0.83410 0.86783
 C774 C 0.67983 0.83127 0.87858
 C775 C 0.67409 0.81976 0.88512
 C776 C 0.66221 0.81611 0.87775
 H777 H 0.68971 0.83656 0.88099
 H778 H 0.65526 0.80723 0.87949
 H779 H 0.66645 0.83061 0.84423
 H780 H 0.65390 0.84450 0.85033
 N781 N 0.17278 0.36452 0.84422
 N782 N 0.16309 0.36580 0.83484
 C783 C 0.16720 0.37604 0.82638
 C784 C 0.18023 0.38129 0.83064
 C785 C 0.18341 0.37372 0.84198
 H786 H 0.16147 0.37902 0.81750
 H787 H 0.19285 0.37472 0.84808
 Cu788 Cu 0.14662 0.35324 0.83389
 Cu789 Cu 0.17133 0.35079 0.85849
 Cu790 Cu 0.14492 0.32598 0.85521
 N791 N 0.13341 0.33758 0.83111
 N792 N 0.13306 0.32701 0.83952
 C793 C 0.12400 0.31718 0.83505
 C794 C 0.11826 0.32170 0.82319
 C795 C 0.12436 0.33481 0.82098
 H796 H 0.12195 0.30726 0.83994
 H797 H 0.12284 0.34147 0.81239
 N798 N 0.15783 0.32650 0.87048
 N799 N 0.16797 0.33600 0.87186
 C800 C 0.17567 0.33290 0.88281
 C801 C 0.17016 0.32078 0.88846
 C802 C 0.15883 0.31708 0.88039
 H803 H 0.18508 0.33855 0.88600
 H804 H 0.15210 0.30793 0.88144
 H805 H 0.16161 0.33679 0.84596
 H806 H 0.14979 0.34735 0.85730
 N807 N 0.17690 0.86733 0.34136
 N808 N 0.16654 0.86904 0.33272
 C809 C 0.17011 0.87954 0.32432
 C810 C 0.18348 0.88457 0.32795
 C811 C 0.18735 0.87661 0.33884
 H812 H 0.16378 0.88282 0.31589
 H813 H 0.19713 0.87745 0.34446
 Cu814 Cu 0.14997 0.85664 0.33291
 Cu815 Cu 0.17658 0.85292 0.35493
 Cu816 Cu 0.14913 0.82871 0.35387
 N817 N 0.13624 0.84141 0.33086
 N818 N 0.13570 0.83078 0.33920
 C819 C 0.12548 0.82176 0.33523
 C820 C 0.11941 0.82686 0.32364
 C821 C 0.12653 0.83938 0.32119
 H822 H 0.12306 0.81193 0.34013
 H823 H 0.12497 0.84640 0.31288
 N824 N 0.16400 0.82856 0.36781
 N825 N 0.17455 0.83775 0.36793
 C826 C 0.18370 0.83441 0.37769
 C827 C 0.17878 0.82254 0.38407
 C828 C 0.16617 0.81911 0.37763
 H829 H 0.19347 0.84000 0.37984
 H830 H 0.15956 0.81000 0.37949
 H831 H 0.16484 0.83887 0.34330
 H832 H 0.15462 0.84952 0.35582
 C833 C 0.25193 1.03885 0.24630
 C834 C 0.26206 1.03122 0.23907
 C835 C 0.26272 1.01655 0.24038
 C836 C 0.25248 1.00921 0.24808
 C837 C 0.24197 1.01722 0.25487
 C838 C 0.24210 1.03197 0.25447
 C839 C 0.25282 0.99338 0.24910
 C840 C 0.24580 0.98629 0.25960
 C841 C 0.24585 0.97155 0.26038
 C842 C 0.25349 0.96374 0.25097
 C843 C 0.26076 0.97043 0.24063
 C844 C 0.26015 0.98513 0.23956
 H845 H 0.25176 1.05024 0.24565
 H846 H 0.27120 1.01108 0.23522
 H847 H 0.23373 1.01224 0.26071
 H848 H 0.24040 0.99201 0.26741
 H849 H 0.25369 0.95235 0.25163
 H850 H 0.26519 0.98987 0.23102
 C851 C 0.25200 0.53733 0.75492
 C852 C 0.26212 0.52998 0.74742
 C853 C 0.26250 0.51522 0.74796
 C854 C 0.25198 0.50761 0.75513
 C855 C 0.24147 0.51541 0.76213
 C856 C 0.24184 0.53015 0.76245
 C857 C 0.25187 0.49174 0.75519
 C858 C 0.24456 0.48413 0.76520
 C859 C 0.24416 0.46935 0.76506
 C860 C 0.25159 0.46201 0.75518
 C861 C 0.25905 0.46919 0.74524
 C862 C 0.25897 0.48396 0.74515
 H863 H 0.25195 0.54875 0.75478
 H864 H 0.27091 0.50991 0.74257
 H865 H 0.23297 0.51024 0.76750
 H866 H 0.23929 0.48947 0.77332
 H867 H 0.25147 0.45060 0.75516
 H868 H 0.26421 0.48918 0.73696
 C869 C 0.74159 -0.03978 0.25870
 C870 C 0.75078 -0.03203 0.26675
 C871 C 0.75023 -0.01731 0.26661
 C872 C 0.73975 -0.01011 0.25911
 C873 C 0.73013 -0.01829 0.25143
 C874 C 0.73152 -0.03299 0.25072
 C875 C 0.73939 0.00576 0.25873
 C876 C 0.73286 0.01293 0.24802
 C877 C 0.73307 0.02765 0.24723
 C878 C 0.74036 0.03537 0.25689
 C879 C 0.74720 0.02864 0.26746
 C880 C 0.74620 0.01395 0.26867
 H881 H 0.74246 -0.05117 0.25847
 H882 H 0.75817 -0.01171 0.27230
 H883 H 0.72177 -0.01342 0.24565
 H884 H 0.72799 0.00727 0.23990
 H885 H 0.74070 0.04675 0.25623
 H886 H 0.75114 0.00910 0.27721
 C887 C 0.74572 0.46150 0.75231
 C888 C 0.75470 0.46913 0.76069
 C889 C 0.75419 0.48388 0.76064
 C890 C 0.74402 0.49122 0.75282
 C891 C 0.73466 0.48313 0.74485
 C892 C 0.73593 0.46843 0.74413
 C893 C 0.74355 0.50710 0.75257
 C894 C 0.73690 0.51444 0.74198
 C895 C 0.73704 0.52919 0.74140
 C896 C 0.74436 0.53677 0.75112
 C897 C 0.75109 0.52987 0.76164
 C898 C 0.75024 0.51518 0.76262
 H899 H 0.74639 0.45011 0.75214
 H900 H 0.76186 0.48936 0.76673
 H901 H 0.72649 0.48804 0.73888
 H902 H 0.73192 0.50895 0.73383
 H903 H 0.74472 0.54817 0.75058
 H904 H 0.75517 0.51027 0.77113
 C905 C 0.24378 0.46471 0.25483
 C906 C 0.25151 0.47173 0.26464
 C907 C 0.25167 0.48647 0.26488
 C908 C 0.24520 0.49435 0.25457
 C909 C 0.23787 0.48691 0.24446
 C910 C 0.23672 0.47218 0.24485
 C911 C 0.24658 0.51013 0.25411
 C912 C 0.23687 0.51844 0.24675
 C913 C 0.23883 0.53302 0.24551
 C914 C 0.24996 0.53957 0.25240
 C915 C 0.25936 0.53173 0.26024
 C916 C 0.25788 0.51705 0.26077
 H917 H 0.24353 0.45330 0.25482
 H918 H 0.25722 0.49156 0.27296
 H919 H 0.23303 0.49236 0.23620
 H920 H 0.22786 0.51374 0.24174
 H921 H 0.25106 0.55092 0.25188
 H922 H 0.26584 0.51118 0.26622
 C923 C 0.75517 1.03775 0.75881
 C924 C 0.76574 1.03112 0.75121
 C925 C 0.76682 1.01639 0.75135
 C926 C 0.75663 1.00812 0.75820
 C927 C 0.74585 1.01513 0.76555
 C928 C 0.74537 1.02985 0.76609
 C929 C 0.75673 0.99235 0.75708
 C930 C 0.75031 0.98383 0.76693
 C931 C 0.74919 0.96921 0.76518
 C932 C 0.75531 0.96292 0.75394
 C933 C 0.76222 0.97102 0.74431
 C934 C 0.76267 0.98568 0.74577
 H935 H 0.75439 1.04915 0.75885
 H936 H 0.77536 1.01153 0.74572
 H937 H 0.73759 1.00933 0.77067
 H938 H 0.74579 0.98844 0.77582
 H939 H 0.75479 0.95159 0.75275
 H940 H 0.76728 0.99176 0.73778
 C941 C 0.75394 0.53938 0.24943
 C942 C 0.76316 0.53178 0.24118
 C943 C 0.76442 0.51715 0.24277
 C944 C 0.75566 0.50974 0.25189
 C945 C 0.74604 0.51778 0.25973
 C946 C 0.74558 0.53251 0.25889
 C947 C 0.75646 0.49386 0.25315
 C948 C 0.74940 0.48669 0.26362
 C949 C 0.74953 0.47195 0.26445
 C950 C 0.75732 0.46416 0.25518
 C951 C 0.76464 0.47083 0.24488
 C952 C 0.76405 0.48554 0.24378
 H953 H 0.75330 0.55074 0.24851
 H954 H 0.77221 0.51185 0.23665
 H955 H 0.73886 0.51294 0.26672
 H956 H 0.74378 0.49223 0.27137
 H957 H 0.75749 0.45276 0.25584
 H958 H 0.76927 0.49013 0.23528
 C959 C 0.25394 -0.03408 0.74828
 C960 C 0.26379 -0.02710 0.75631
 C961 C 0.26431 -0.01235 0.75624
 C962 C 0.25420 -0.00437 0.74895
 C963 C 0.24397 -0.01178 0.74130
 C964 C 0.24420 -0.02651 0.74059
 C965 C 0.25409 0.01148 0.74954
 C966 C 0.24737 0.01955 0.73950
 C967 C 0.24617 0.03423 0.74063
 C968 C 0.25260 0.04110 0.75137
 C969 C 0.26002 0.03351 0.76104
 C970 C 0.26042 0.01876 0.76029
 H971 H 0.25383 -0.04550 0.74805
 H972 H 0.27255 -0.00732 0.76204
 H973 H 0.23579 -0.00630 0.73577
 H974 H 0.24279 0.01459 0.73085
 H975 H 0.25215 0.05249 0.75198
 H976 H 0.26547 0.01315 0.76835
 C977 C 0.25291 0.25460 1.03854
 C978 C 0.24450 0.26472 1.03220
 C979 C 0.24405 0.26506 1.01827
 C980 C 0.25099 0.25452 1.01060
 C981 C 0.25872 0.24391 1.01743
 C982 C 0.26014 0.24431 1.03127
 C983 C 0.25017 0.25449 0.99564
 C984 C 0.26033 0.24700 0.98792
 C985 C 0.25938 0.24659 0.97402
 C986 C 0.24856 0.25411 0.96765
 C987 C 0.23855 0.26185 0.97493
 C988 C 0.23923 0.26188 0.98886
 H989 H 0.25368 0.25460 1.04930
 H990 H 0.23806 0.27344 1.01365
 H991 H 0.26382 0.23533 1.01220
 H992 H 0.26926 0.24166 0.99248
 H993 H 0.24793 0.25396 0.95689
 H994 H 0.23096 0.26746 0.99420
 C995 C 0.24346 0.74539 0.53554
 C996 C 0.23259 0.75248 0.52881
 C997 C 0.23123 0.75083 0.51501
 C998 C 0.24140 0.74289 0.50768
 C999 C 0.25263 0.73630 0.51479
 C1000 C 0.25332 0.73716 0.52864
 C1001 C 0.24050 0.74161 0.49279
 C1002 C 0.24764 0.73060 0.48596
 C1003 C 0.24758 0.72986 0.47205
 C1004 C 0.23979 0.73977 0.46482
 C1005 C 0.23242 0.75062 0.47125
 C1006 C 0.23288 0.75162 0.48515
 H1007 H 0.24424 0.74627 0.54626
 H1008 H 0.22232 0.75594 0.51017
 H1009 H 0.26091 0.73039 0.50978
 H1010 H 0.25328 0.72243 0.49126
 H1011 H 0.23974 0.73925 0.45406
 H1012 H 0.22770 0.76055 0.48976
 C1013 C 0.25171 0.75051 -0.03881
 C1014 C 0.25976 0.76047 -0.03193
 C1015 C 0.25978 0.76043 -0.01801
 C1016 C 0.25263 0.74972 -0.01083
 C1017 C 0.24504 0.73942 -0.01813
 C1018 C 0.24409 0.74018 -0.03199
 C1019 C 0.25307 0.74926 0.00410
 C1020 C 0.24253 0.74189 0.01143
 C1021 C 0.24334 0.74094 0.02530
 C1022 C 0.25395 0.74830 0.03208
 C1023 C 0.26407 0.75617 0.02515
 C1024 C 0.26401 0.75621 0.01125
 H1025 H 0.25142 0.75077 -0.04958
 H1026 H 0.26556 0.76870 -0.01301
 H1027 H 0.23965 0.73083 -0.01323
 H1028 H 0.23370 0.73672 0.00657
 H1029 H 0.25422 0.74808 0.04285
 H1030 H 0.27241 0.76189 0.00625
 C1031 C 0.25488 0.24777 0.46233
 C1032 C 0.26597 0.25426 0.46926
 C1033 C 0.26733 0.25202 0.48297
 C1034 C 0.25693 0.24421 0.49008
 C1035 C 0.24559 0.23808 0.48279
 C1036 C 0.24489 0.23945 0.46894
 C1037 C 0.25764 0.24288 0.50497
 C1038 C 0.25024 0.23205 0.51179
 C1039 C 0.24977 0.23182 0.52572
 C1040 C 0.25734 0.24185 0.53297
 C1041 C 0.26519 0.25230 0.52655
 C1042 C 0.26517 0.25293 0.51264
 H1043 H 0.25411 0.24910 0.45165
 H1044 H 0.27642 0.25664 0.48793
 H1045 H 0.23728 0.23212 0.48765
 H1046 H 0.24454 0.22393 0.50648
 H1047 H 0.25702 0.24155 0.54374
 H1048 H 0.27059 0.26168 0.50804
 C1049 C 0.76083 0.75833 1.03457
 C1050 C 0.75222 0.76799 1.02789
 C1051 C 0.75194 0.76799 1.01396
 C1052 C 0.75928 0.75749 1.00655
 C1053 C 0.76741 0.74742 1.01373
 C1054 C 0.76860 0.74815 1.02761
 C1055 C 0.75802 0.75667 0.99160
 C1056 C 0.76773 0.74852 0.98394
 C1057 C 0.76577 0.74670 0.97023
 C1058 C 0.75467 0.75378 0.96383
 C1059 C 0.74541 0.76257 0.97091
 C1060 C 0.74687 0.76372 0.98475
 H1061 H 0.76117 0.75850 1.04534
 H1062 H 0.74565 0.77604 1.00918
 H1063 H 0.77285 0.73887 1.00877
 H1064 H 0.77677 0.74331 0.98844
 H1065 H 0.75349 0.75275 0.95316
 H1066 H 0.73898 0.76993 0.98994
 C1067 C 0.74717 0.24720 0.53546
 C1068 C 0.73771 0.25591 0.52855
 C1069 C 0.73843 0.25648 0.51465
 C1070 C 0.74907 0.24895 0.50753
 C1071 C 0.75902 0.24092 0.51492
 C1072 C 0.75776 0.23964 0.52874
 C1073 C 0.74954 0.24915 0.49258
 C1074 C 0.75682 0.23848 0.48535
 C1075 C 0.75739 0.23880 0.47145
 C1076 C 0.74974 0.24906 0.46456
 C1077 C 0.74201 0.25936 0.47136
 C1078 C 0.74245 0.25980 0.48526
 H1079 H 0.74658 0.24661 0.54620
 H1080 H 0.73038 0.26260 0.50959
 H1081 H 0.76771 0.23541 0.51013
 H1082 H 0.76219 0.22989 0.49029
 H1083 H 0.74983 0.24904 0.45378
 H1084 H 0.73700 0.26839 0.49015
 C1085 C 0.74871 0.24898 -0.03691
 C1086 C 0.75670 0.25917 -0.03026
 C1087 C 0.75589 0.26009 -0.01637
 C1088 C 0.74805 0.25008 -0.00889
 C1089 C 0.74060 0.23948 -0.01595
 C1090 C 0.74047 0.23932 -0.02986
 C1091 C 0.74763 0.25071 0.00607
 C1092 C 0.73677 0.24375 0.01339
 C1093 C 0.73679 0.24394 0.02731
 C1094 C 0.74690 0.25194 0.03407
 C1095 C 0.75744 0.25928 0.02715
 C1096 C 0.75814 0.25823 0.01328
 H1097 H 0.74878 0.24864 -0.04768
 H1098 H 0.76154 0.26861 -0.01161
 H1099 H 0.73466 0.23138 -0.01086
 H1100 H 0.72832 0.23800 0.00852
 H1101 H 0.74669 0.25232 0.04484
 H1102 H 0.76691 0.26343 0.00835
 C1103 C 0.75097 0.74915 0.46233
 C1104 C 0.76175 0.75632 0.46913
 C1105 C 0.76202 0.75601 0.48306
 C1106 C 0.75127 0.74897 0.49037
 C1107 C 0.74037 0.74203 0.48318
 C1108 C 0.74035 0.74188 0.46925
 C1109 C 0.75143 0.74887 0.50531
 C1110 C 0.74398 0.73841 0.51256
 C1111 C 0.74361 0.73871 0.52647
 C1112 C 0.75164 0.74870 0.53332
 C1113 C 0.75953 0.75882 0.52648
 C1114 C 0.75897 0.75926 0.51257
 H1115 H 0.75085 0.74922 0.45156
 H1116 H 0.77086 0.76108 0.48801
 H1117 H 0.73162 0.73689 0.48823
 H1118 H 0.73824 0.73008 0.50759
 H1119 H 0.75168 0.74866 0.54410
 H1120 H 0.76458 0.76769 0.50762
 C1121 C 1.03632 0.25855 0.25972
 C1122 C 1.02855 0.24923 0.26762
 C1123 C 1.01357 0.24966 0.26738
 C1124 C 1.00617 0.25978 0.25964
 C1125 C 1.01442 0.26952 0.25225
 C1126 C 1.02938 0.26855 0.25186
 C1127 C 0.99007 0.25964 0.25867
 C1128 C 0.98292 0.26610 0.24787
 C1129 C 0.96801 0.26538 0.24659
 C1130 C 0.96012 0.25756 0.25576
 C1131 C 0.96685 0.25090 0.26644
 C1132 C 0.98164 0.25246 0.26818
 H1133 H 1.04790 0.25801 0.25970
 H1134 H 1.00795 0.24165 0.27289
 H1135 H 1.00942 0.27767 0.24641
 H1136 H 0.98874 0.27141 0.24009
 H1137 H 0.94862 0.25683 0.25472
 H1138 H 0.98641 0.24768 0.27683
 C1139 C 0.53559 0.24101 0.73889
 C1140 C 0.52873 0.23016 0.74572
 C1141 C 0.51395 0.22824 0.74413
 C1142 C 0.50570 0.23786 0.73657
 C1143 C 0.51301 0.24886 0.72997
 C1144 C 0.52787 0.25026 0.73086
 C1145 C 0.48959 0.23719 0.73631
 C1146 C 0.48161 0.24470 0.72666
 C1147 C 0.46673 0.24607 0.72775
 C1148 C 0.45950 0.23887 0.73779
 C1149 C 0.46695 0.23061 0.74693
 C1150 C 0.48192 0.22998 0.74633
 H1151 H 0.54708 0.24218 0.73979
 H1152 H 0.50906 0.21946 0.74919
 H1153 H 0.50732 0.25683 0.72446
 H1154 H 0.48679 0.24999 0.71849
 H1155 H 0.44796 0.23969 0.73844
 H1156 H 0.48736 0.22433 0.75413
 C1157 C -0.03941 0.25183 0.74762
 C1158 C -0.03191 0.25916 0.75742
 C1159 C -0.01694 0.25812 0.75792
 C1160 C -0.00923 0.25061 0.74805
 C1161 C -0.01719 0.24358 0.73810
 C1162 C -0.03217 0.24378 0.73812
 C1163 C 0.00691 0.25029 0.74790
 C1164 C 0.01443 0.23994 0.74049
 C1165 C 0.02935 0.24030 0.73944
 C1166 C 0.03705 0.25016 0.74675
 C1167 C 0.03006 0.26002 0.75479
 C1168 C 0.01505 0.26044 0.75493
 H1169 H -0.05100 0.25209 0.74761
 H1170 H -0.01151 0.26338 0.76596
 H1171 H -0.01199 0.23807 0.73005
 H1172 H 0.00893 0.23164 0.73527
 H1173 H 0.04863 0.25012 0.74621
 H1174 H 0.00997 0.26865 0.76066
 C1175 C 0.46662 0.24346 0.25683
 C1176 C 0.47384 0.25313 0.26482
 C1177 C 0.48884 0.25315 0.26492
 C1178 C 0.49678 0.24326 0.25730
 C1179 C 0.48904 0.23317 0.24983
 C1180 C 0.47409 0.23364 0.24921
 C1181 C 0.51288 0.24395 0.25655
 C1182 C 0.52043 0.23768 0.24584
 C1183 C 0.53537 0.23829 0.24512
 C1184 C 0.54292 0.24603 0.25457
 C1185 C 0.53578 0.25295 0.26491
 C1186 C 0.52092 0.25135 0.26622
 H1187 H 0.45503 0.24355 0.25652
 H1188 H 0.49406 0.26130 0.27059
 H1189 H 0.49441 0.22509 0.24414
 H1190 H 0.51494 0.23220 0.23796
 H1191 H 0.55446 0.24675 0.25380
 H1192 H 0.51580 0.25621 0.27467
 C1193 C 1.03733 0.74891 0.74399
 C1194 C 1.03000 0.73896 0.75155
 C1195 C 1.01503 0.73882 0.75149
 C1196 C 1.00719 0.74929 0.74462
 C1197 C 1.01494 0.75925 0.73703
 C1198 C 1.02991 0.75889 0.73651
 C1199 C 0.99117 0.75016 0.74580
 C1200 C 0.98292 0.75742 0.73622
 C1201 C 0.96808 0.75894 0.73773
 C1202 C 0.96121 0.75223 0.74830
 C1203 C 0.96901 0.74460 0.75764
 C1204 C 0.98392 0.74397 0.75668
 H1205 H 1.04892 0.74882 0.74389
 H1206 H 1.00971 0.73071 0.75713
 H1207 H 1.00959 0.76768 0.73182
 H1208 H 0.98785 0.76210 0.72759
 H1209 H 0.94967 0.75278 0.74918
 H1210 H 0.98963 0.73850 0.76445
 C1211 C 0.53688 0.75213 0.25294
 C1212 C 0.52904 0.74330 0.26131
 C1213 C 0.51420 0.74510 0.26231
 C1214 C 0.50713 0.75621 0.25567
 C1215 C 0.51547 0.76538 0.24776
 C1216 C 0.53019 0.76307 0.24603
 C1217 C 0.49117 0.75789 0.25669
 C1218 C 0.48334 0.76504 0.24677
 C1219 C 0.46840 0.76601 0.24740
 C1220 C 0.46104 0.75938 0.25775
 C1221 C 0.46846 0.75212 0.26768
 C1222 C 0.48346 0.75181 0.26733
 H1223 H 0.54835 0.75077 0.25210
 H1224 H 0.50833 0.73752 0.26814
 H1225 H 0.51066 0.77425 0.24274
 H1226 H 0.48862 0.76948 0.23820
 H1227 H 0.44946 0.75968 0.25790
 H1228 H 0.48895 0.74675 0.27546
 C1229 C -0.03513 0.74606 0.25311
 C1230 C -0.02769 0.75632 0.26025
 C1231 C -0.01271 0.75638 0.26000
 C1232 C -0.00496 0.74594 0.25303
 C1233 C -0.01280 0.73545 0.24619
 C1234 C -0.02782 0.73565 0.24594
 C1235 C 0.01111 0.74635 0.25249
 C1236 C 0.01862 0.73992 0.24190
 C1237 C 0.03357 0.74066 0.24104
 C1238 C 0.04111 0.74851 0.25045
 C1239 C 0.03402 0.75511 0.26100
 C1240 C 0.01915 0.75360 0.26226
 H1241 H -0.04671 0.74625 0.25307
 H1242 H -0.00729 0.76491 0.26498
 H1243 H -0.00739 0.72696 0.24107
 H1244 H 0.01300 0.73454 0.23403
 H1245 H 0.05266 0.74919 0.24978
 H1246 H 0.01398 0.75837 0.27076
 C1247 C 0.46134 0.74117 0.75286
 C1248 C 0.46807 0.74763 0.76363
 C1249 C 0.48277 0.74561 0.76557
 C1250 C 0.49113 0.73809 0.75620
 C1251 C 0.48398 0.73168 0.74540
 C1252 C 0.46913 0.73291 0.74391
 C1253 C 0.50719 0.73766 0.75724
 C1254 C 0.51539 0.72770 0.75000
 C1255 C 0.53034 0.72863 0.74956
 C1256 C 0.53731 0.73879 0.75717
 C1257 C 0.52957 0.74829 0.76498
 C1258 C 0.51461 0.74790 0.76478
 H1259 H 0.44988 0.74232 0.75162
 H1260 H 0.48755 0.75029 0.77427
 H1261 H 0.48975 0.72601 0.73779
 H1262 H 0.51039 0.71946 0.74427
 H1263 H 0.54888 0.73936 0.75693
 H1264 H 0.50901 0.75611 0.77008
 C1265 C 0.39938 0.30472 0.29112
 C1266 C 0.41168 0.29873 0.29702
 C1267 C 0.41267 0.29913 0.31109
 C1268 C 0.40175 0.30536 0.31877
 C1269 C 0.38977 0.31138 0.31266
 C1270 C 0.38871 0.31092 0.29880
 C1271 C 0.42456 0.29333 0.31740
 C1272 C 0.43541 0.28691 0.31012
 C1273 C 0.43485 0.28605 0.29611
 C1274 C 0.42286 0.29225 0.28946
 C1275 C 0.42239 0.29167 0.27544
 C1276 C 0.43285 0.28478 0.26818
 C1277 C 0.44428 0.27824 0.27450
 C1278 C 0.44570 0.27898 0.28852
 C1279 C 0.45777 0.27229 0.29427
 C1280 C 0.46741 0.26456 0.28648
 C1281 C 0.46536 0.26329 0.27278
 C1282 C 0.45408 0.27058 0.26682
 H1283 H 0.39751 0.30479 0.28058
 H1284 H 0.40269 0.30571 0.32950
 H1285 H 0.37946 0.31521 0.29378
 H1286 H 0.42547 0.29368 0.32813
 H1287 H 0.44411 0.28263 0.31582
 H1288 H 0.41399 0.29635 0.26966
 H1289 H 0.43182 0.28436 0.25746
 H1290 H 0.45990 0.27249 0.30478
 H1291 H 0.47612 0.25902 0.29127
 H1292 H 0.45263 0.26985 0.25615
 C1293 C 0.40816 0.81447 0.79313
 C1294 C 0.41559 0.80271 0.79832
 C1295 C 0.41350 0.79946 0.81190
 C1296 C 0.40362 0.80709 0.81960
 C1297 C 0.39574 0.81831 0.81414
 C1298 C 0.39849 0.82209 0.80090
 C1299 C 0.42118 0.78851 0.81775
 C1300 C 0.43083 0.78056 0.81040
 C1301 C 0.43293 0.78300 0.79671
 C1302 C 0.42496 0.79408 0.79051
 C1303 C 0.42622 0.79586 0.77664
 C1304 C 0.43489 0.78713 0.76905
 C1305 C 0.44290 0.77648 0.77496
 C1306 C 0.44238 0.77444 0.78890
 C1307 C 0.45132 0.76385 0.79438
 C1308 C 0.45985 0.75532 0.78624
 C1309 C 0.45970 0.75702 0.77245
 C1310 C 0.45136 0.76774 0.76691
 H1311 H 0.40964 0.81817 0.78312
 H1312 H 0.40216 0.80415 0.82989
 H1313 H 0.39298 0.83079 0.79625
 H1314 H 0.41968 0.78602 0.82817
 H1315 H 0.43616 0.77224 0.81570
 H1316 H 0.42025 0.80365 0.77120
 H1317 H 0.43529 0.78873 0.75839
 H1318 H 0.45206 0.76194 0.80490
 H1319 H 0.46638 0.74719 0.79072
 H1320 H 0.45150 0.76929 0.75623
 C1321 C -0.09668 0.31837 0.79176
 C1322 C -0.08711 0.30793 0.79643
 C1323 C -0.08742 0.30468 0.81016
 C1324 C -0.09754 0.31108 0.81860
 C1325 C -0.10723 0.32107 0.81367
 C1326 C -0.10654 0.32475 0.80024
 C1327 C -0.07772 0.29500 0.81539
 C1328 C -0.06782 0.28826 0.80727
 C1329 C -0.06740 0.29073 0.79344
 C1330 C -0.07735 0.30060 0.78792
 C1331 C -0.07755 0.30248 0.77401
 C1332 C -0.06847 0.29499 0.76574
 C1333 C -0.05865 0.28545 0.77093
 C1334 C -0.05768 0.28336 0.78485
 C1335 C -0.04709 0.27386 0.78951
 C1336 C -0.03838 0.26636 0.78065
 C1337 C -0.03999 0.26802 0.76694
 C1338 C -0.04995 0.27778 0.76217
 H1339 H -0.09682 0.32197 0.78164
 H1340 H -0.09780 0.30829 0.82903
 H1341 H -0.11386 0.33242 0.79613
 H1342 H -0.07780 0.29257 0.82592
 H1343 H -0.06089 0.28081 0.81212
 H1344 H -0.08496 0.30937 0.76906
 H1345 H -0.06924 0.29662 0.75511
 H1346 H -0.04528 0.27194 0.79991
 H1347 H -0.03065 0.25893 0.78452
 H1348 H -0.05102 0.27930 0.75154
 C1349 C -0.09628 0.81498 0.28890
 C1350 C -0.08495 0.80685 0.29424
 C1351 C -0.08364 0.80632 0.30826
 C1352 C -0.09383 0.81284 0.31646
 C1353 C -0.10527 0.82034 0.31098
 C1354 C -0.10621 0.82163 0.29717
 C1355 C -0.07227 0.79915 0.31408
 C1356 C -0.06218 0.79226 0.30633
 C1357 C -0.06328 0.79194 0.29234
 C1358 C -0.07500 0.79914 0.28620
 C1359 C -0.07671 0.79792 0.27231
 C1360 C -0.06751 0.78973 0.26471
 C1361 C -0.05602 0.78273 0.27053
 C1362 C -0.05339 0.78413 0.28434
 C1363 C -0.04108 0.77741 0.28957
 C1364 C -0.03245 0.76888 0.28159
 C1365 C -0.03574 0.76679 0.26819
 C1366 C -0.04732 0.77403 0.26264
 H1367 H -0.09776 0.81648 0.27839
 H1368 H -0.09285 0.81207 0.32717
 H1369 H -0.11492 0.82747 0.29271
 H1370 H -0.07119 0.79880 0.32479
 H1371 H -0.05391 0.78681 0.31168
 H1372 H -0.08544 0.80273 0.26703
 H1373 H -0.06950 0.78876 0.25414
 H1374 H -0.03784 0.77847 0.29978
 H1375 H -0.02343 0.76349 0.28602
 H1376 H -0.04969 0.77269 0.25218
 C1377 C 0.59508 0.68254 0.29075
 C1378 C 0.58441 0.69156 0.29605
 C1379 C 0.58379 0.69310 0.31005
 C1380 C 0.59403 0.68661 0.31821
 C1381 C 0.60485 0.67821 0.31272
 C1382 C 0.60508 0.67600 0.29898
 C1383 C 0.57311 0.70128 0.31587
 C1384 C 0.56309 0.70822 0.30811
 C1385 C 0.56355 0.70752 0.29410
 C1386 C 0.57451 0.69920 0.28796
 C1387 C 0.57555 0.69925 0.27396
 C1388 C 0.56648 0.70738 0.26623
 C1389 C 0.55578 0.71554 0.27205
 C1390 C 0.55380 0.71537 0.28602
 C1391 C 0.54226 0.72329 0.29129
 C1392 C 0.53384 0.73180 0.28315
 C1393 C 0.53658 0.73269 0.26951
 C1394 C 0.54729 0.72420 0.26396
 H1395 H 0.59603 0.68029 0.28031
 H1396 H 0.59358 0.68812 0.32888
 H1397 H 0.61329 0.66950 0.29448
 H1398 H 0.57253 0.70244 0.32657
 H1399 H 0.55540 0.71450 0.31345
 H1400 H 0.58366 0.69351 0.26862
 H1401 H 0.56798 0.70740 0.25554
 H1402 H 0.53950 0.72326 0.30168
 H1403 H 0.52550 0.73815 0.28763
 H1404 H 0.54920 0.72457 0.25334
 C1405 C 0.59306 0.20679 0.80745
 C1406 C 0.58482 0.19981 0.79768
 C1407 C 0.58733 0.18522 0.79575
 C1408 C 0.59779 0.17809 0.80325
 C1409 C 0.60583 0.18524 0.81287
 C1410 C 0.60332 0.19963 0.81484
 C1411 C 0.57941 0.17781 0.78633
 C1412 C 0.56913 0.18456 0.77865
 C1413 C 0.56632 0.19910 0.78006
 C1414 C 0.57432 0.20685 0.78974
 C1415 C 0.57171 0.22144 0.79103
 C1416 C 0.56202 0.22833 0.78294
 C1417 C 0.55431 0.22101 0.77336
 C1418 C 0.55601 0.20624 0.77193
 C1419 C 0.54740 0.19938 0.76228
 C1420 C 0.53809 0.20701 0.75409
 C1421 C 0.53715 0.22165 0.75521
 C1422 C 0.54506 0.22851 0.76504
 H1423 H 0.59194 0.21781 0.80970
 H1424 H 0.59954 0.16693 0.80167
 H1425 H 0.60944 0.20555 0.82203
 H1426 H 0.58124 0.16665 0.78481
 H1427 H 0.56368 0.17806 0.77151
 H1428 H 0.57716 0.22802 0.79809
 H1429 H 0.56062 0.23960 0.78415
 H1430 H 0.54768 0.18817 0.76071
 H1431 H 0.53197 0.20152 0.74658
 H1432 H 0.54416 0.23986 0.76603
 C1433 C 1.09330 0.70917 0.81153
 C1434 C 1.08497 0.70320 0.80126
 C1435 C 1.08668 0.68861 0.79866
 C1436 C 1.09661 0.68054 0.80592
 C1437 C 1.10476 0.68672 0.81603
 C1438 C 1.10296 0.70108 0.81871
 C1439 C 1.07845 0.68215 0.78886
 C1440 C 1.06850 0.68980 0.78157
 C1441 C 1.06651 0.70439 0.78366
 C1442 C 1.07506 0.71123 0.79353
 C1443 C 1.07361 0.72592 0.79522
 C1444 C 1.06430 0.73372 0.78751
 C1445 C 1.05586 0.72725 0.77794
 C1446 C 1.05652 0.71247 0.77600
 C1447 C 1.04720 0.70651 0.76640
 C1448 C 1.03818 0.71501 0.75873
 C1449 C 1.03824 0.72961 0.76037
 C1450 C 1.04689 0.73562 0.77011
 H1451 H 1.09258 0.72005 0.81443
 H1452 H 1.09782 0.66940 0.80383
 H1453 H 1.10918 0.70626 0.82632
 H1454 H 1.07970 0.67100 0.78680
 H1455 H 1.06271 0.68400 0.77414
 H1456 H 1.07978 0.73191 0.80224
 H1457 H 1.06375 0.74502 0.78905
 H1458 H 1.04663 0.69536 0.76455
 H1459 H 1.03143 0.71021 0.75126
 H1460 H 1.04674 0.74696 0.77148
 C1461 C 1.09530 0.18830 0.29503
 C1462 C 1.08530 0.19774 0.30075
 C1463 C 1.08550 0.19937 0.31476
 C1464 C 1.09583 0.19239 0.32251
 C1465 C 1.10583 0.18335 0.31659
 C1466 C 1.10532 0.18126 0.30283
 C1467 C 1.07540 0.20796 0.32097
 C1468 C 1.06512 0.21509 0.31362
 C1469 C 1.06473 0.21419 0.29962
 C1470 C 1.07518 0.20558 0.29307
 C1471 C 1.07547 0.20544 0.27904
 C1472 C 1.06603 0.21350 0.27164
 C1473 C 1.05573 0.22182 0.27784
 C1474 C 1.05459 0.22202 0.29190
 C1475 C 1.04346 0.23025 0.29757
 C1476 C 1.03453 0.23853 0.28962
 C1477 C 1.03640 0.23890 0.27585
 C1478 C 1.04678 0.23027 0.27001
 H1479 H 1.09559 0.18593 0.28457
 H1480 H 1.09595 0.19386 0.33319
 H1481 H 1.11288 0.17432 0.29796
 H1482 H 1.07542 0.20919 0.33168
 H1483 H 1.05785 0.22158 0.31923
 H1484 H 1.08323 0.19958 0.27339
 H1485 H 1.06690 0.21329 0.26090
 H1486 H 1.04143 0.23060 0.30810
 H1487 H 1.02650 0.24512 0.29430
 H1488 H 1.04811 0.23041 0.25930
 C1489 C 0.59370 0.31335 0.70631
 C1490 C 0.58320 0.30470 0.70030
 C1491 C 0.58279 0.30425 0.68622
 C1492 C 0.59304 0.31141 0.67865
 C1493 C 0.60372 0.31937 0.68480
 C1494 C 0.60375 0.32054 0.69865
 C1495 C 0.57229 0.29649 0.67974
 C1496 C 0.56226 0.28888 0.68688
 C1497 C 0.56252 0.28848 0.70089
 C1498 C 0.57328 0.29638 0.70772
 C1499 C 0.57413 0.29525 0.72168
 C1500 C 0.56502 0.28651 0.72873
 C1501 C 0.55451 0.27876 0.72223
 C1502 C 0.55275 0.27996 0.70829
 C1503 C 0.54142 0.27234 0.70235
 C1504 C 0.53299 0.26317 0.70980
 C1505 C 0.53550 0.26134 0.72338
 C1506 C 0.54599 0.26948 0.72961
 H1507 H 0.59446 0.31480 0.71689
 H1508 H 0.59274 0.31072 0.66791
 H1509 H 0.61184 0.32671 0.70366
 H1510 H 0.57188 0.29618 0.66898
 H1511 H 0.55473 0.28299 0.68103
 H1512 H 0.58210 0.30060 0.72748
 H1513 H 0.56635 0.28567 0.73939
 H1514 H 0.53884 0.27313 0.69196
 H1515 H 0.52480 0.25710 0.70482
 H1516 H 0.54769 0.26838 0.74021
 C1517 C 0.59468 0.79006 0.18540
 C1518 C 0.58611 0.79640 0.19536
 C1519 C 0.58775 0.81107 0.19750
 C1520 C 0.59793 0.81881 0.19026
 C1521 C 0.60654 0.81224 0.18065
 C1522 C 0.60465 0.79785 0.17823
 C1523 C 0.57929 0.81794 0.20692
 C1524 C 0.56921 0.81060 0.21432
 C1525 C 0.56732 0.79595 0.21276
 C1526 C 0.57608 0.78869 0.20327
 C1527 C 0.57478 0.77393 0.20221
 C1528 C 0.56542 0.76646 0.21021
 C1529 C 0.55676 0.77335 0.21940
 C1530 C 0.55725 0.78822 0.22063
 C1531 C 0.54768 0.79464 0.22977
 C1532 C 0.53858 0.78654 0.23772
 C1533 C 0.53877 0.77185 0.23688
 C1534 C 0.54770 0.76536 0.22752
 H1535 H 0.59397 0.77908 0.18282
 H1536 H 0.59909 0.82999 0.19209
 H1537 H 0.61107 0.79242 0.17089
 H1538 H 0.58050 0.82914 0.20864
 H1539 H 0.56330 0.81672 0.22147
 H1540 H 0.58113 0.76767 0.19551
 H1541 H 0.56501 0.75510 0.20919
 H1542 H 0.54693 0.80587 0.23103
 H1543 H 0.53165 0.79176 0.24482
 H1544 H 0.54764 0.75397 0.22664
 C1545 C 1.09440 0.29443 0.19141
 C1546 C 1.08435 0.30110 0.19986
 C1547 C 1.08379 0.31601 0.19972
 C1548 C 1.09331 0.32379 0.19180
 C1549 C 1.10344 0.31697 0.18376
 C1550 C 1.10374 0.30224 0.18357
 C1551 C 1.07378 0.32311 0.20753
 C1552 C 1.06436 0.31577 0.21563
 C1553 C 1.06469 0.30093 0.21641
 C1554 C 1.07493 0.29349 0.20844
 C1555 C 1.07563 0.27868 0.20951
 C1556 C 1.06674 0.27137 0.21805
 C1557 C 1.05672 0.27843 0.22582
 C1558 C 1.05533 0.29327 0.22505
 C1559 C 1.04465 0.29973 0.23305
 C1560 C 1.03608 0.29176 0.24162
 C1561 C 1.03791 0.27718 0.24253
 C1562 C 1.04814 0.27060 0.23448
 H1563 H 1.09539 0.28318 0.19054
 H1564 H 1.09278 0.33519 0.19188
 H1565 H 1.11140 0.29659 0.17751
 H1566 H 1.07323 0.33451 0.20741
 H1567 H 1.05706 0.32212 0.22137
 H1568 H 1.08314 0.27232 0.20405
 H1569 H 1.06780 0.26002 0.21862
 H1570 H 1.04263 0.31089 0.23296
 H1571 H 1.02820 0.29705 0.24775
 H1572 H 1.04941 0.25926 0.23496
 C1573 C 1.09911 0.81590 0.70744
 C1574 C 1.08843 0.80709 0.70200
 C1575 C 1.08796 0.80565 0.68798
 C1576 C 1.09834 0.81211 0.67993
 C1577 C 1.10903 0.82050 0.68556
 C1578 C 1.10917 0.82247 0.69934
 C1579 C 1.07713 0.79780 0.68206
 C1580 C 1.06672 0.79127 0.68972
 C1581 C 1.06697 0.79197 0.70373
 C1582 C 1.07823 0.79972 0.70997
 C1583 C 1.07924 0.79945 0.72397
 C1584 C 1.06963 0.79188 0.73162
 C1585 C 1.05847 0.78451 0.72573
 C1586 C 1.05668 0.78474 0.71174
 C1587 C 1.04473 0.77752 0.70640
 C1588 C 1.03561 0.76972 0.71455
 C1589 C 1.03808 0.76886 0.72822
 C1590 C 1.04931 0.77656 0.73378
 H1591 H 1.09988 0.81815 0.71790
 H1592 H 1.09796 0.81078 0.66924
 H1593 H 1.11724 0.82897 0.70397
 H1594 H 1.07665 0.79672 0.67135
 H1595 H 1.05883 0.78534 0.68432
 H1596 H 1.08770 0.80455 0.72935
 H1597 H 1.07105 0.79171 0.74231
 H1598 H 1.04218 0.77761 0.69597
 H1599 H 1.02691 0.76388 0.71010
 H1600 H 1.05109 0.77606 0.74442
 C1601 C 0.40337 0.70917 0.68351
 C1602 C 0.41314 0.70244 0.69217
 C1603 C 0.41248 0.68757 0.69315
 C1604 C 0.40183 0.67998 0.68643
 C1605 C 0.39188 0.68690 0.67836
 C1606 C 0.39296 0.70149 0.67674
 C1607 C 0.42233 0.68031 0.70095
 C1608 C 0.43278 0.68747 0.70800
 C1609 C 0.43356 0.70231 0.70782
 C1610 C 0.42341 0.70994 0.69997
 C1611 C 0.42346 0.72479 0.70062
 C1612 C 0.43281 0.73196 0.70888
 C1613 C 0.44275 0.72469 0.71656
 C1614 C 0.44370 0.70981 0.71576
 C1615 C 0.45462 0.70308 0.72317
 C1616 C 0.46335 0.71073 0.73179
 C1617 C 0.46151 0.72526 0.73327
 C1618 C 0.45148 0.73223 0.72535
 H1619 H 0.40350 0.72033 0.68167
 H1620 H 0.40132 0.66864 0.68748
 H1621 H 0.38550 0.70710 0.67045
 H1622 H 0.42191 0.66894 0.70168
 H1623 H 0.43975 0.68104 0.71395
 H1624 H 0.41596 0.73125 0.69527
 H1625 H 0.43213 0.74334 0.70938
 H1626 H 0.45665 0.69193 0.72261
 H1627 H 0.47119 0.70518 0.73773
 H1628 H 0.45025 0.74355 0.72629
 C1629 C 0.40949 0.20787 0.18884
 C1630 C 0.41789 0.20130 0.19874
 C1631 C 0.41549 0.18679 0.20120
 C1632 C 0.40501 0.17934 0.19404
 C1633 C 0.39688 0.18607 0.18422
 C1634 C 0.39924 0.20038 0.18178
 C1635 C 0.42354 0.17980 0.21080
 C1636 C 0.43394 0.18684 0.21807
 C1637 C 0.43670 0.20130 0.21607
 C1638 C 0.42845 0.20867 0.20631
 C1639 C 0.43085 0.22323 0.20457
 C1640 C 0.44057 0.23046 0.21235
 C1641 C 0.44857 0.22350 0.22196
 C1642 C 0.44714 0.20876 0.22375
 C1643 C 0.45615 0.20223 0.23329
 C1644 C 0.46544 0.21019 0.24118
 C1645 C 0.46600 0.22480 0.23982
 C1646 C 0.45780 0.23133 0.23001
 H1647 H 0.41049 0.21879 0.18622
 H1648 H 0.40333 0.16825 0.19601
 H1649 H 0.39301 0.20601 0.17445
 H1650 H 0.42174 0.16872 0.21278
 H1651 H 0.43947 0.18067 0.22542
 H1652 H 0.42519 0.22954 0.19744
 H1653 H 0.44177 0.24170 0.21085
 H1654 H 0.45621 0.19104 0.23498
 H1655 H 0.47186 0.20498 0.24866
 H1656 H 0.45842 0.24268 0.22885
 C1657 C -0.10074 0.68553 0.21326
 C1658 C -0.08797 0.69180 0.20859
 C1659 C -0.08554 0.69177 0.19467
 C1660 C -0.09582 0.68626 0.18590
 C1661 C -0.10851 0.68040 0.19074
 C1662 C -0.11075 0.67994 0.20448
 C1663 C -0.07291 0.69732 0.18955
 C1664 C -0.06265 0.70308 0.19788
 C1665 C -0.06470 0.70378 0.21177
 C1666 C -0.07765 0.69817 0.21720
 C1667 C -0.08004 0.69949 0.23100
 C1668 C -0.07037 0.70635 0.23918
 C1669 C -0.05778 0.71195 0.23404
 C1670 C -0.05449 0.71037 0.22036
 C1671 C -0.04122 0.71574 0.21586
 C1672 C -0.03223 0.72326 0.22436
 C1673 C -0.03607 0.72563 0.23762
 C1674 C -0.04864 0.71950 0.24249
 H1675 H -0.10336 0.68470 0.22365
 H1676 H -0.09387 0.68644 0.17528
 H1677 H -0.12047 0.67549 0.20853
 H1678 H -0.07095 0.69728 0.17893
 H1679 H -0.05334 0.70728 0.19302
 H1680 H -0.08955 0.69571 0.23583
 H1681 H -0.07289 0.70745 0.24964
 H1682 H -0.03753 0.71450 0.20579
 H1683 H -0.02250 0.72777 0.22038
 H1684 H -0.05151 0.72096 0.25284
 C1685 C -0.10109 0.21286 0.68386
 C1686 C -0.09019 0.20714 0.69197
 C1687 C -0.08921 0.19227 0.69286
 C1688 C -0.09927 0.18364 0.68645
 C1689 C -0.11016 0.18955 0.67872
 C1690 C -0.11083 0.20419 0.67735
 C1691 C -0.07820 0.18607 0.70012
 C1692 C -0.06806 0.19429 0.70653
 C1693 C -0.06875 0.20914 0.70624
 C1694 C -0.08026 0.21566 0.69917
 C1695 C -0.08174 0.23044 0.69990
 C1696 C -0.07240 0.23858 0.70731
 C1697 C -0.06098 0.23243 0.71400
 C1698 C -0.05866 0.21769 0.71322
 C1699 C -0.04638 0.21216 0.71959
 C1700 C -0.03745 0.22079 0.72715
 C1701 C -0.04043 0.23514 0.72861
 C1702 C -0.05202 0.24096 0.72175
 H1703 H -0.10228 0.22399 0.68213
 H1704 H -0.09848 0.17229 0.68731
 H1705 H -0.11909 0.20905 0.67138
 H1706 H -0.07738 0.17471 0.70084
 H1707 H -0.06003 0.18863 0.71203
 H1708 H -0.09039 0.23606 0.69525
 H1709 H -0.07419 0.24985 0.70785
 H1710 H -0.04338 0.20123 0.71896
 H1711 H -0.02845 0.21611 0.73228
 H1712 H -0.05420 0.25214 0.72264
 C1713 C 0.31273 0.40669 0.29370
 C1714 C 0.30198 0.41544 0.29917
 C1715 C 0.29830 0.41338 0.31269
 C1716 C 0.30472 0.40254 0.32013
 C1717 C 0.31492 0.39358 0.31433
 C1718 C 0.31899 0.39601 0.30113
 C1719 C 0.28806 0.42202 0.31867
 C1720 C 0.28117 0.43251 0.31148
 C1721 C 0.28411 0.43469 0.29787
 C1722 C 0.29468 0.42597 0.29162
 C1723 C 0.29732 0.42778 0.27791
 C1724 C 0.28965 0.43738 0.27045
 C1725 C 0.27921 0.44578 0.27632
 C1726 C 0.27652 0.44494 0.29016
 C1727 C 0.26615 0.45427 0.29558
 C1728 C 0.25831 0.46338 0.28741
 C1729 C 0.26057 0.46342 0.27369
 C1730 C 0.27123 0.45485 0.26827
 H1731 H 0.31660 0.40771 0.28369
 H1732 H 0.30157 0.40099 0.33037
 H1733 H 0.32701 0.38960 0.29630
 H1734 H 0.28523 0.42056 0.32903
 H1735 H 0.27328 0.43852 0.31684
 H1736 H 0.30501 0.42164 0.27243
 H1737 H 0.29184 0.43813 0.25989
 H1738 H 0.26377 0.45476 0.30604
 H1739 H 0.25019 0.47010 0.29175
 H1740 H 0.27313 0.45511 0.25763
 C1741 C 0.29290 -0.08902 0.81755
 C1742 C 0.29854 -0.08215 0.80624
 C1743 C 0.31258 -0.08579 0.80223
 C1744 C 0.32012 -0.09657 0.80873
 C1745 C 0.31413 -0.10381 0.81958
 C1746 C 0.30057 -0.09957 0.82408
 C1747 C 0.31904 -0.07871 0.79169
 C1748 C 0.31182 -0.06817 0.78488
 C1749 C 0.29758 -0.06455 0.78808
 C1750 C 0.29074 -0.07187 0.79878
 C1751 C 0.27618 -0.06905 0.80134
 C1752 C 0.26849 -0.05957 0.79368
 C1753 C 0.27504 -0.05222 0.78338
 C1754 C 0.28977 -0.05426 0.78062
 C1755 C 0.29595 -0.04599 0.77038
 C1756 C 0.28764 -0.03674 0.76281
 C1757 C 0.27300 -0.03547 0.76519
 C1758 C 0.26680 -0.04304 0.77561
 H1759 H 0.28263 -0.08641 0.82173
 H1760 H 0.33076 -0.09916 0.80527
 H1761 H 0.29556 -0.10457 0.83252
 H1762 H 0.32983 -0.08136 0.78864
 H1763 H 0.31759 -0.06338 0.77681
 H1764 H 0.27018 -0.07442 0.80893
 H1765 H 0.25723 -0.05804 0.79581
 H1766 H 0.30716 -0.04643 0.76795
 H1767 H 0.29258 -0.03088 0.75481
 H1768 H 0.25544 -0.04190 0.77750
 C1769 C 0.78788 0.40961 0.82221
 C1770 C 0.79301 0.41676 0.81084
 C1771 C 0.80712 0.41372 0.80662
 C1772 C 0.81526 0.40328 0.81296
 C1773 C 0.80978 0.39570 0.82380
 C1774 C 0.79610 0.39931 0.82852
 C1775 C 0.81309 0.42101 0.79598
 C1776 C 0.80526 0.43107 0.78916
 C1777 C 0.79090 0.43403 0.79250
 C1778 C 0.78464 0.42668 0.80348
 C1779 C 0.77009 0.42910 0.80643
 C1780 C 0.76186 0.43821 0.79886
 C1781 C 0.76777 0.44543 0.78816
 C1782 C 0.78245 0.44374 0.78495
 C1783 C 0.78792 0.45167 0.77414
 C1784 C 0.77902 0.46038 0.76660
 C1785 C 0.76448 0.46143 0.76955
 C1786 C 0.75895 0.45411 0.78042
 H1787 H 0.77759 0.41178 0.82658
 H1788 H 0.82591 0.40114 0.80928
 H1789 H 0.79148 0.39413 0.83706
 H1790 H 0.82395 0.41884 0.79281
 H1791 H 0.81072 0.43605 0.78101
 H1792 H 0.76453 0.42374 0.81430
 H1793 H 0.75065 0.43950 0.80134
 H1794 H 0.79896 0.45131 0.77116
 H1795 H 0.78344 0.46601 0.75820
 H1796 H 0.74765 0.45500 0.78269
 C1797 C 0.78856 -0.09156 0.32578
 C1798 C 0.79280 -0.08434 0.31414
 C1799 C 0.80654 -0.08734 0.30895
 C1800 C 0.81511 -0.09787 0.31464
 C1801 C 0.81045 -0.10554 0.32577
 C1802 C 0.79723 -0.10189 0.33146
 C1803 C 0.81164 -0.07997 0.29796
 C1804 C 0.80331 -0.06979 0.29182
 C1805 C 0.78929 -0.06681 0.29622
 C1806 C 0.78386 -0.07439 0.30743
 C1807 C 0.76949 -0.07219 0.31124
 C1808 C 0.76064 -0.06317 0.30421
 C1809 C 0.76578 -0.05570 0.29332
 C1810 C 0.78030 -0.05698 0.28942
 C1811 C 0.78508 -0.04852 0.27870
 C1812 C 0.77558 -0.03998 0.27165
 C1813 C 0.76114 -0.03957 0.27511
 C1814 C 0.75633 -0.04719 0.28608
 H1815 H 0.77861 -0.08946 0.33080
 H1816 H 0.82544 -0.10002 0.31024
 H1817 H 0.79322 -0.10724 0.34017
 H1818 H 0.82219 -0.08215 0.29400
 H1819 H 0.80802 -0.06479 0.28328
 H1820 H 0.76453 -0.07774 0.31933
 H1821 H 0.74958 -0.06213 0.30728
 H1822 H 0.79606 -0.04827 0.27548
 H1823 H 0.77941 -0.03400 0.26322
 H1824 H 0.74512 -0.04668 0.28881
 C1825 C 0.29057 0.59244 0.68674
 C1826 C 0.29692 0.58428 0.69690
 C1827 C 0.31167 0.58639 0.69949
 C1828 C 0.31950 0.59654 0.69232
 C1829 C 0.31292 0.60455 0.68236
 C1830 C 0.29843 0.60233 0.67966
 C1831 C 0.31851 0.57840 0.70920
 C1832 C 0.31106 0.56839 0.71653
 C1833 C 0.29631 0.56605 0.71452
 C1834 C 0.28912 0.57420 0.70459
 C1835 C 0.27429 0.57221 0.70280
 C1836 C 0.26666 0.56288 0.71059
 C1837 C 0.27343 0.55496 0.72035
 C1838 C 0.28839 0.55610 0.72232
 C1839 C 0.29466 0.54731 0.73213
 C1840 C 0.28626 0.53836 0.73998
 C1841 C 0.27145 0.53797 0.73832
 C1842 C 0.26516 0.54607 0.72834
 H1843 H 0.27953 0.59150 0.68391
 H1844 H 0.33074 0.59807 0.69442
 H1845 H 0.29296 0.60844 0.67216
 H1846 H 0.32978 0.57991 0.71120
 H1847 H 0.31716 0.56281 0.72390
 H1848 H 0.26807 0.57791 0.69562
 H1849 H 0.25524 0.56193 0.70900
 H1850 H 0.30597 0.54715 0.73407
 H1851 H 0.29129 0.53207 0.74764
 H1852 H 0.25367 0.54561 0.72697
 C1853 C 0.29315 1.09348 0.17929
 C1854 C 0.29900 1.08498 0.18948
 C1855 C 0.31364 1.08687 0.19263
 C1856 C 0.32174 1.09736 0.18626
 C1857 C 0.31558 1.10602 0.17655
 C1858 C 0.30130 1.10378 0.17301
 C1859 C 0.32010 1.07842 0.20223
 C1860 C 0.31232 1.06825 0.20899
 C1861 C 0.29760 1.06626 0.20659
 C1862 C 0.29081 1.07486 0.19674
 C1863 C 0.27594 1.07341 0.19479
 C1864 C 0.26790 1.06421 0.20239
 C1865 C 0.27430 1.05588 0.21207
 C1866 C 0.28929 1.05637 0.21406
 C1867 C 0.29522 1.04709 0.22364
 C1868 C 0.28646 1.03846 0.23143
 C1869 C 0.27162 1.03884 0.22990
 C1870 C 0.26566 1.04730 0.22000
 H1871 H 0.28230 1.09250 0.17589
 H1872 H 0.33286 1.09876 0.18893
 H1873 H 0.29621 1.11022 0.16552
 H1874 H 0.33130 1.07976 0.20463
 H1875 H 0.31812 1.06238 0.21638
 H1876 H 0.27001 1.07958 0.18774
 H1877 H 0.25645 1.06375 0.20077
 H1878 H 0.30653 1.04630 0.22544
 H1879 H 0.29124 1.03183 0.23896
 H1880 H 0.25416 1.04738 0.21868
 C1881 C 0.78763 0.59376 0.17816
 C1882 C 0.79442 0.58486 0.18756
 C1883 C 0.80938 0.58632 0.18921
 C1884 C 0.81686 0.59699 0.18260
 C1885 C 0.80979 0.60628 0.17405
 C1886 C 0.79525 0.60427 0.17151
 C1887 C 0.81680 0.57740 0.19776
 C1888 C 0.80967 0.56724 0.20507
 C1889 C 0.79467 0.56583 0.20440
 C1890 C 0.78690 0.57486 0.19557
 C1891 C 0.77184 0.57408 0.19555
 C1892 C 0.76457 0.56523 0.20418
 C1893 C 0.77198 0.55649 0.21289
 C1894 C 0.78713 0.55619 0.21277
 C1895 C 0.79404 0.54641 0.22127
 C1896 C 0.78624 0.53814 0.23016
 C1897 C 0.77138 0.53933 0.23085
 C1898 C 0.76429 0.54823 0.22195
 H1899 H 0.77644 0.59297 0.17579
 H1900 H 0.82823 0.59826 0.18430
 H1901 H 0.78961 0.61122 0.16479
 H1902 H 0.82826 0.57844 0.19898
 H1903 H 0.81622 0.56103 0.21162
 H1904 H 0.76525 0.58064 0.18934
 H1905 H 0.75299 0.56536 0.20413
 H1906 H 0.80545 0.54490 0.22132
 H1907 H 0.79188 0.53109 0.23679
 H1908 H 0.75271 0.54886 0.22223
 C1909 C 0.79160 1.09373 0.68960
 C1910 C 0.79829 1.08602 0.69988
 C1911 C 0.81314 1.08809 0.70187
 C1912 C 0.82068 1.09809 0.69429
 C1913 C 0.81374 1.10586 0.68435
 C1914 C 0.79919 1.10344 0.68206
 C1915 C 0.82037 1.08012 0.71138
 C1916 C 0.81323 1.07010 0.71894
 C1917 C 0.79837 1.06793 0.71760
 C1918 C 0.79074 1.07631 0.70814
 C1919 C 0.77572 1.07505 0.70750
 C1920 C 0.76839 1.06587 0.71569
 C1921 C 0.77566 1.05739 0.72471
 C1922 C 0.79077 1.05800 0.72567
 C1923 C 0.79752 1.04866 0.73472
 C1924 C 0.78950 1.03962 0.74279
 C1925 C 0.77458 1.03971 0.74216
 C1926 C 0.76778 1.04843 0.73295
 H1927 H 0.78055 1.09236 0.68693
 H1928 H 0.83199 1.09966 0.69602
 H1929 H 0.79345 1.10920 0.67448
 H1930 H 0.83173 1.08159 0.71294
 H1931 H 0.81962 1.06446 0.72607
 H1932 H 0.76917 1.08138 0.70106
 H1933 H 0.75683 1.06546 0.71498
 H1934 H 0.80896 1.04802 0.73578
 H1935 H 0.79496 1.03278 0.74975
 H1936 H 0.75621 1.04826 0.73226
 C1937 C 0.71575 0.59785 0.31708
 C1938 C 0.70969 0.58748 0.30868
 C1939 C 0.69458 0.58650 0.30829
 C1940 C 0.68605 0.59620 0.31525
 C1941 C 0.69225 0.60681 0.32297
 C1942 C 0.70713 0.60731 0.32412
 C1943 C 0.68803 0.57598 0.30083
 C1944 C 0.69610 0.56643 0.29355
 C1945 C 0.71116 0.56727 0.29312
 C1946 C 0.71805 0.57816 0.30060
 C1947 C 0.73299 0.57971 0.29935
 C1948 C 0.74093 0.57107 0.29100
 C1949 C 0.73442 0.56029 0.28384
 C1950 C 0.71952 0.55792 0.28507
 C1951 C 0.71365 0.54632 0.27808
 C1952 C 0.72213 0.53795 0.26978
 C1953 C 0.73665 0.54088 0.26813
 C1954 C 0.74276 0.55194 0.27533
 H1955 H 0.72710 0.59893 0.31849
 H1956 H 0.67451 0.59549 0.31461
 H1957 H 0.71219 0.61529 0.33018
 H1958 H 0.67648 0.57516 0.30056
 H1959 H 0.69013 0.55879 0.28794
 H1960 H 0.73887 0.58788 0.30434
 H1961 H 0.75233 0.57288 0.29013
 H1962 H 0.70258 0.54335 0.27887
 H1963 H 0.71725 0.52931 0.26442
 H1964 H 0.75411 0.55401 0.27431
 C1965 C 0.70621 1.08852 0.82512
 C1966 C 0.70247 1.08223 0.81287
 C1967 C 0.68974 1.08691 0.80667
 C1968 C 0.68157 1.09788 0.81227
 C1969 C 0.68574 1.10446 0.82417
 C1970 C 0.69804 1.09937 0.83060
 C1971 C 0.68528 1.08076 0.79481
 C1972 C 0.69333 1.07028 0.78873
 C1973 C 0.70641 1.06562 0.79418
 C1974 C 0.71102 1.07164 0.80651
 C1975 C 0.72423 1.06721 0.81185
 C1976 C 0.73290 1.05764 0.80522
 C1977 C 0.72872 1.05191 0.79311
 C1978 C 0.71527 1.05548 0.78753
 C1979 C 0.71150 1.04900 0.77532
 C1980 C 0.72103 1.04008 0.76868
 C1981 C 0.73449 1.03726 0.77402
 C1982 C 0.73818 1.04292 0.78634
 H1983 H 0.71542 1.08538 0.83079
 H1984 H 0.67201 1.10129 0.80715
 H1985 H 0.70165 1.10378 0.83990
 H1986 H 0.67548 1.08420 0.79006
 H1987 H 0.68911 1.06626 0.77954
 H1988 H 0.72847 1.07119 0.82104
 H1989 H 0.74313 1.05487 0.80956
 H1990 H 0.70141 1.05079 0.77048
 H1991 H 0.71808 1.03571 0.75913
 H1992 H 0.74865 1.04066 0.79045
 C1993 C 0.20842 0.59339 0.82053
 C1994 C 0.20306 0.58520 0.80991
 C1995 C 0.18857 0.58718 0.80626
 C1996 C 0.18016 0.59752 0.81257
 C1997 C 0.18584 0.60587 0.82276
 C1998 C 0.19996 0.60352 0.82678
 C1999 C 0.18255 0.57889 0.79630
 C2000 C 0.19061 0.56869 0.78977
 C2001 C 0.20521 0.56660 0.79272
 C2002 C 0.21160 0.57519 0.80280
 C2003 C 0.22641 0.57384 0.80513
 C2004 C 0.23476 0.56455 0.79787
 C2005 C 0.22870 0.55600 0.78816
 C2006 C 0.21380 0.55657 0.78563
 C2007 C 0.20823 0.54713 0.77600
 C2008 C 0.21724 0.53814 0.76880
 C2009 C 0.23199 0.53832 0.77093
 C2010 C 0.23761 0.54707 0.78077
 H2011 H 0.21908 0.59221 0.82438
 H2012 H 0.16914 0.59901 0.80955
 H2013 H 0.20470 0.60967 0.83467
 H2014 H 0.17147 0.58031 0.79348
 H2015 H 0.18515 0.56289 0.78211
 H2016 H 0.23209 0.58018 0.81224
 H2017 H 0.24614 0.56412 0.79982
 H2018 H 0.19700 0.54645 0.77378
 H2019 H 0.21274 0.53131 0.76126
 H2020 H 0.24904 0.54704 0.78253
 C2021 C 0.21050 1.09466 0.31403
 C2022 C 0.20459 1.08593 0.30406
 C2023 C 0.18956 1.08627 0.30230
 C2024 C 0.18105 1.09572 0.30965
 C2025 C 0.18720 1.10460 0.31918
 C2026 C 0.20194 1.10380 0.32140
 C2027 C 0.18313 1.07720 0.29319
 C2028 C 0.19126 1.06773 0.28580
 C2029 C 0.20630 1.06726 0.28694
 C2030 C 0.21308 1.07688 0.29587
 C2031 C 0.22815 1.07751 0.29600
 C2032 C 0.23635 1.06892 0.28786
 C2033 C 0.22992 1.05911 0.27951
 C2034 C 0.21483 1.05783 0.27912
 C2035 C 0.20900 1.04710 0.27095
 C2036 C 0.21781 1.03850 0.26314
 C2037 C 0.23262 1.04042 0.26313
 C2038 C 0.23860 1.05062 0.27145
 H2039 H 0.22169 1.09455 0.31655
 H2040 H 0.16961 1.09606 0.30802
 H2041 H 0.20704 1.11047 0.32871
 H2042 H 0.17164 1.07736 0.29181
 H2043 H 0.18546 1.06123 0.27890
 H2044 H 0.23400 1.08495 0.30195
 H2045 H 0.24788 1.06996 0.28814
 H2046 H 0.19771 1.04496 0.27053
 H2047 H 0.21304 1.03050 0.25690
 H2048 H 0.25011 1.05189 0.27168
 C2049 C 0.71091 0.40539 0.68212
 C2050 C 0.70411 0.41468 0.69120
 C2051 C 0.68901 0.41405 0.69216
 C2052 C 0.68130 0.40395 0.68499
 C2053 C 0.68828 0.39436 0.67663
 C2054 C 0.70309 0.39542 0.67499
 C2055 C 0.68166 0.42331 0.70047
 C2056 C 0.68894 0.43304 0.70817
 C2057 C 0.70401 0.43373 0.70807
 C2058 C 0.71173 0.42434 0.69950
 C2059 C 0.72681 0.42457 0.69986
 C2060 C 0.73412 0.43338 0.70848
 C2061 C 0.72676 0.44251 0.71691
 C2062 C 0.71163 0.44316 0.71660
 C2063 C 0.70480 0.45314 0.72500
 C2064 C 0.71268 0.46154 0.73372
 C2065 C 0.72753 0.46022 0.73441
 C2066 C 0.73452 0.45090 0.72580
 H2067 H 0.72226 0.40547 0.68033
 H2068 H 0.66978 0.40347 0.68606
 H2069 H 0.70875 0.38821 0.66850
 H2070 H 0.67010 0.42293 0.70115
 H2071 H 0.68238 0.43959 0.71443
 H2072 H 0.73337 0.41773 0.69388
 H2073 H 0.74570 0.43293 0.70862
 H2074 H 0.69341 0.45475 0.72510
 H2075 H 0.70710 0.46887 0.74016
 H2076 H 0.74609 0.45017 0.72606
 C2077 C 0.70878 -0.09562 0.18762
 C2078 C 0.70163 -0.08735 0.19729
 C2079 C 0.68664 -0.08905 0.19853
 C2080 C 0.67938 -0.09912 0.19085
 C2081 C 0.68674 -0.10755 0.18165
 C2082 C 0.70144 -0.10551 0.17998
 C2083 C 0.67897 -0.08080 0.20754
 C2084 C 0.68582 -0.07090 0.21544
 C2085 C 0.70077 -0.06901 0.21484
 C2086 C 0.70884 -0.07757 0.20579
 C2087 C 0.72388 -0.07639 0.20583
 C2088 C 0.73083 -0.06735 0.21449
 C2089 C 0.72314 -0.05887 0.22326
 C2090 C 0.70799 -0.05920 0.22333
 C2091 C 0.70079 -0.04973 0.23198
 C2092 C 0.70837 -0.04095 0.24064
 C2093 C 0.72329 -0.04137 0.24098
 C2094 C 0.73059 -0.05017 0.23210
 H2095 H 0.72005 -0.09472 0.18562
 H2096 H 0.66794 -0.10037 0.19205
 H2097 H 0.70744 -0.11176 0.17291
 H2098 H 0.66751 -0.08206 0.20856
 H2099 H 0.67910 -0.06518 0.22227
 H2100 H 0.73071 -0.08265 0.19956
 H2101 H 0.74241 -0.06704 0.21433
 H2102 H 0.68932 -0.04880 0.23228
 H2103 H 0.70255 -0.03405 0.24731
 H2104 H 0.74219 -0.05026 0.23213
 C2105 C 0.18033 0.40706 0.20804
 C2106 C 0.19051 0.41706 0.20373
 C2107 C 0.19397 0.41732 0.19000
 C2108 C 0.18773 0.40761 0.18115
 C2109 C 0.17771 0.39778 0.18568
 C2110 C 0.17410 0.39766 0.19917
 C2111 C 0.20363 0.42725 0.18519
 C2112 C 0.20999 0.43695 0.19366
 C2113 C 0.20710 0.43701 0.20744
 C2114 C 0.19735 0.42675 0.21257
 C2115 C 0.19495 0.42631 0.22642
 C2116 C 0.20191 0.43540 0.23499
 C2117 C 0.21138 0.44545 0.23018
 C2118 C 0.21392 0.44670 0.21634
 C2119 C 0.22328 0.45754 0.21209
 C2120 C 0.23032 0.46617 0.22128
 C2121 C 0.22825 0.46428 0.23492
 C2122 C 0.21854 0.45410 0.23926
 H2123 H 0.17678 0.40622 0.21817
 H2124 H 0.19050 0.40787 0.17069
 H2125 H 0.16651 0.39011 0.20302
 H2126 H 0.20631 0.42754 0.17471
 H2127 H 0.21742 0.44413 0.18911
 H2128 H 0.18800 0.41881 0.23110
 H2129 H 0.19989 0.43448 0.24557
 H2130 H 0.22547 0.45960 0.20177
 H2131 H 0.23774 0.47405 0.21772
 H2132 H 0.21673 0.45277 0.24983
 C2133 C 0.21284 -0.08871 0.68075
 C2134 C 0.20707 -0.08035 0.69112
 C2135 C 0.19245 -0.08227 0.69437
 C2136 C 0.18426 -0.09257 0.68784
 C2137 C 0.19031 -0.10103 0.67787
 C2138 C 0.20460 -0.09883 0.67431
 C2139 C 0.18610 -0.07401 0.70420
 C2140 C 0.19393 -0.06393 0.71104
 C2141 C 0.20861 -0.06185 0.70846
 C2142 C 0.21533 -0.07032 0.69844
 C2143 C 0.23017 -0.06880 0.69634
 C2144 C 0.23826 -0.05964 0.70394
 C2145 C 0.23191 -0.05137 0.71374
 C2146 C 0.21694 -0.05195 0.71590
 C2147 C 0.21105 -0.04271 0.72557
 C2148 C 0.21982 -0.03399 0.73325
 C2149 C 0.23464 -0.03426 0.73155
 C2150 C 0.24057 -0.04272 0.72161
 H2151 H 0.22368 -0.08772 0.67730
 H2152 H 0.17315 -0.09397 0.69055
 H2153 H 0.20964 -0.10514 0.66667
 H2154 H 0.17492 -0.07540 0.70671
 H2155 H 0.18821 -0.05822 0.71862
 H2156 H 0.23605 -0.07488 0.68914
 H2157 H 0.24968 -0.05911 0.70218
 H2158 H 0.19975 -0.04198 0.72749
 H2159 H 0.21505 -0.02735 0.74082
 H2160 H 0.25207 -0.04272 0.72017
 C2161 C 0.29581 0.31851 0.41094
 C2162 C 0.30171 0.30704 0.41804
 C2163 C 0.31584 0.30284 0.41477
 C2164 C 0.32334 0.30949 0.40441
 C2165 C 0.31706 0.32047 0.39712
 C2166 C 0.30333 0.32501 0.40070
 C2167 C 0.32233 0.29187 0.42172
 C2168 C 0.31504 0.28470 0.43166
 C2169 C 0.30077 0.28810 0.43497
 C2170 C 0.29401 0.29949 0.42806
 C2171 C 0.27962 0.30268 0.43109
 C2172 C 0.27193 0.29481 0.44018
 C2173 C 0.27824 0.28356 0.44680
 C2174 C 0.29284 0.28022 0.44464
 C2175 C 0.29872 0.26890 0.45207
 C2176 C 0.29018 0.26084 0.46060
 C2177 C 0.27562 0.26380 0.46197
 C2178 C 0.26983 0.27537 0.45532
 H2179 H 0.28534 0.32272 0.41292
 H2180 H 0.33405 0.30600 0.40195
 H2181 H 0.29810 0.33345 0.39538
 H2182 H 0.33317 0.28867 0.41935
 H2183 H 0.32082 0.27627 0.43636
 H2184 H 0.27374 0.31101 0.42634
 H2185 H 0.26081 0.29747 0.44192
 H2186 H 0.30978 0.26585 0.45140
 H2187 H 0.29484 0.25195 0.46576
 H2188 H 0.25855 0.27777 0.45654
 C2189 C 0.31983 0.79307 -0.09350
 C2190 C 0.30902 0.79853 -0.08509
 C2191 C 0.30505 0.81283 -0.08680
 C2192 C 0.31135 0.82103 -0.09686
 C2193 C 0.32178 0.81529 -0.10530
 C2194 C 0.32599 0.80128 -0.10340
 C2195 C 0.29475 0.81886 -0.07853
 C2196 C 0.28807 0.81099 -0.06869
 C2197 C 0.29133 0.79661 -0.06680
 C2198 C 0.30195 0.79027 -0.07518
 C2199 C 0.30490 0.77578 -0.07362
 C2200 C 0.29752 0.76765 -0.06452
 C2201 C 0.28708 0.77359 -0.05641
 C2202 C 0.28404 0.78821 -0.05709
 C2203 C 0.27367 0.79367 -0.04813
 C2204 C 0.26616 0.78479 -0.03950
 C2205 C 0.26875 0.77030 -0.03957
 C2206 C 0.27942 0.76484 -0.04780
 H2207 H 0.32384 0.78247 -0.09276
 H2208 H 0.30813 0.83192 -0.09809
 H2209 H 0.33394 0.79644 -0.10976
 H2210 H 0.29175 0.82982 -0.07971
 H2211 H 0.28012 0.81645 -0.06290
 H2212 H 0.31266 0.77020 -0.07952
 H2213 H 0.29995 0.75650 -0.06390
 H2214 H 0.27103 0.80469 -0.04759
 H2215 H 0.25798 0.78917 -0.03307
 H2216 H 0.28154 0.75360 -0.04768
 C2217 C 0.81652 0.29033 -0.09298
 C2218 C 0.80658 0.29610 -0.08384
 C2219 C 0.80371 0.31074 -0.08466
 C2220 C 0.81022 0.31902 -0.09453
 C2221 C 0.81976 0.31301 -0.10368
 C2222 C 0.82295 0.29866 -0.10267
 C2223 C 0.79423 0.31704 -0.07575
 C2224 C 0.78738 0.30915 -0.06605
 C2225 C 0.78958 0.29449 -0.06497
 C2226 C 0.79927 0.28784 -0.07408
 C2227 C 0.80103 0.27309 -0.07338
 C2228 C 0.79332 0.26504 -0.06444
 C2229 C 0.78379 0.27132 -0.05560
 C2230 C 0.78207 0.28615 -0.05538
 C2231 C 0.77271 0.29191 -0.04567
 C2232 C 0.76485 0.28322 -0.03717
 C2233 C 0.76604 0.26858 -0.03808
 C2234 C 0.77576 0.26273 -0.04711
 H2235 H 0.81955 0.27940 -0.09303
 H2236 H 0.80782 0.33017 -0.09507
 H2237 H 0.83021 0.29368 -0.10962
 H2238 H 0.79197 0.32822 -0.07635
 H2239 H 0.78008 0.31485 -0.05975
 H2240 H 0.80806 0.26728 -0.07985
 H2241 H 0.79476 0.25371 -0.06453
 H2242 H 0.77116 0.30307 -0.04442
 H2243 H 0.75746 0.28793 -0.03015
 H2244 H 0.77689 0.25137 -0.04765
 C2245 C 0.81885 0.78566 0.40345
 C2246 C 0.81092 0.79153 0.41410
 C2247 C 0.81036 0.80641 0.41512
 C2248 C 0.81659 0.81492 0.40529
 C2249 C 0.82386 0.80888 0.39454
 C2250 C 0.82522 0.79422 0.39388
 C2251 C 0.80347 0.81274 0.42586
 C2252 C 0.79693 0.80466 0.43560
 C2253 C 0.79665 0.78982 0.43478
 C2254 C 0.80348 0.78317 0.42368
 C2255 C 0.80213 0.76844 0.42220
 C2256 C 0.79424 0.76050 0.43113
 C2257 C 0.78768 0.76679 0.44205
 C2258 C 0.78919 0.78145 0.44434
 C2259 C 0.78295 0.78710 0.45603
 C2260 C 0.77466 0.77874 0.46444
 C2261 C 0.77235 0.76454 0.46150
 C2262 C 0.77925 0.75853 0.45052
 H2263 H 0.82046 0.77450 0.40225
 H2264 H 0.81581 0.82628 0.40604
 H2265 H 0.83092 0.78929 0.38574
 H2266 H 0.80307 0.82411 0.42674
 H2267 H 0.79166 0.81044 0.44342
 H2268 H 0.80654 0.76275 0.41390
 H2269 H 0.79316 0.74929 0.42936
 H2270 H 0.78421 0.79794 0.45894
 H2271 H 0.76954 0.78354 0.47298
 H2272 H 0.77774 0.74744 0.44839
 C2273 C 0.68113 0.28705 0.59398
 C2274 C 0.69004 0.29272 0.58397
 C2275 C 0.69226 0.30749 0.58398
 C2276 C 0.68648 0.31597 0.59415
 C2277 C 0.67804 0.31005 0.60418
 C2278 C 0.67526 0.29558 0.60386
 C2279 C 0.70027 0.31372 0.57390
 C2280 C 0.70627 0.30563 0.56381
 C2281 C 0.70485 0.29083 0.56361
 C2282 C 0.69685 0.28425 0.57402
 C2283 C 0.69639 0.26939 0.57446
 C2284 C 0.70369 0.26123 0.56525
 C2285 C 0.71146 0.26746 0.55503
 C2286 C 0.71174 0.28232 0.55372
 C2287 C 0.71917 0.28799 0.54268
 C2288 C 0.72694 0.27930 0.53406
 C2289 C 0.72750 0.26475 0.53613
 C2290 C 0.71936 0.25887 0.54637
 H2291 H 0.67832 0.27607 0.59443
 H2292 H 0.68844 0.32721 0.59416
 H2293 H 0.66871 0.29072 0.61143
 H2294 H 0.70195 0.32500 0.57381
 H2295 H 0.71246 0.31128 0.55655
 H2296 H 0.69097 0.26367 0.58218
 H2297 H 0.70339 0.24987 0.56625
 H2298 H 0.71931 0.29908 0.54049
 H2299 H 0.73305 0.28404 0.52610
 H2300 H 0.71954 0.24756 0.54783
 C2301 C 0.68863 0.79370 1.08952
 C2302 C 0.69915 0.80029 1.08157
 C2303 C 0.70205 0.81471 1.08404
 C2304 C 0.69506 0.82191 1.09445
 C2305 C 0.68498 0.81502 1.10247
 C2306 C 0.68175 0.80094 1.09973
 C2307 C 0.71198 0.82182 1.07620
 C2308 C 0.71938 0.81491 1.06612
 C2309 C 0.71729 0.80043 1.06355
 C2310 C 0.70697 0.79302 1.07141
 C2311 C 0.70508 0.77848 1.06911
 C2312 C 0.71322 0.77129 1.05982
 C2313 C 0.72344 0.77826 1.05226
 C2314 C 0.72544 0.79298 1.05368
 C2315 C 0.73573 0.79948 1.04532
 C2316 C 0.74409 0.79150 1.03650
 C2317 C 0.74243 0.77691 1.03577
 C2318 C 0.73192 0.77042 1.04346
 H2319 H 0.68541 0.78293 1.08820
 H2320 H 0.69749 0.83289 1.09629
 H2321 H 0.67404 0.79527 1.10567
 H2322 H 0.71415 0.83288 1.07794
 H2323 H 0.72695 0.82118 1.06067
 H2324 H 0.69760 0.77213 1.07457
 H2325 H 0.71158 0.76006 1.05865
 H2326 H 0.73771 0.81064 1.04543
 H2327 H 0.75218 0.79667 1.03056
 H2328 H 0.73058 0.75910 1.04279
 C2329 C 0.19265 0.29456 1.10091
 C2330 C 0.19973 0.30085 1.09002
 C2331 C 0.20047 0.31576 1.08969
 C2332 C 0.19370 0.32392 1.09960
 C2333 C 0.18612 0.31740 1.10993
 C2334 C 0.18596 0.30269 1.11057
 C2335 C 0.20787 0.32242 1.07943
 C2336 C 0.21462 0.31463 1.06949
 C2337 C 0.21400 0.29977 1.06926
 C2338 C 0.20618 0.29281 1.07958
 C2339 C 0.20490 0.27802 1.07907
 C2340 C 0.21157 0.27018 1.06928
 C2341 C 0.21973 0.27669 1.05952
 C2342 C 0.22096 0.29157 1.05914
 C2343 C 0.22931 0.29746 1.04874
 C2344 C 0.23652 0.28884 1.03957
 C2345 C 0.23562 0.27418 1.04051
 C2346 C 0.22691 0.26825 1.05027
 H2347 H 0.19215 0.28336 1.10241
 H2348 H 0.19404 0.33531 1.09910
 H2349 H 0.18067 0.29733 1.11868
 H2350 H 0.20854 0.33380 1.07911
 H2351 H 0.22018 0.32062 1.06203
 H2352 H 0.19869 0.27205 1.08606
 H2353 H 0.21043 0.25883 1.06944
 H2354 H 0.23077 0.30863 1.04760
 H2355 H 0.24321 0.29362 1.03205
 H2356 H 0.22603 0.25687 1.05088
 C2357 C 0.20639 0.81468 0.59047
 C2358 C 0.19963 0.80435 0.58254
 C2359 C 0.18514 0.80118 0.58539
 C2360 C 0.17788 0.80812 0.59581
 C2361 C 0.18483 0.81832 0.60353
 C2362 C 0.19912 0.82147 0.60069
 C2363 C 0.17800 0.79104 0.57789
 C2364 C 0.18497 0.78374 0.56778
 C2365 C 0.19947 0.78631 0.56470
 C2366 C 0.20685 0.79695 0.57209
 C2367 C 0.22127 0.79974 0.56890
 C2368 C 0.22846 0.79204 0.55931
 C2369 C 0.22163 0.78133 0.55238
 C2370 C 0.20697 0.77843 0.55469
 C2371 C 0.20062 0.76751 0.54706
 C2372 C 0.20873 0.75950 0.53808
 C2373 C 0.22331 0.76212 0.53646
 C2374 C 0.22959 0.77324 0.54339
 H2375 H 0.21737 0.81772 0.58921
 H2376 H 0.16680 0.80561 0.59785
 H2377 H 0.20494 0.82909 0.60655
 H2378 H 0.16691 0.78860 0.57995
 H2379 H 0.17868 0.77601 0.56261
 H2380 H 0.22749 0.80776 0.57371
 H2381 H 0.23962 0.79440 0.55743
 H2382 H 0.18954 0.76467 0.54799
 H2383 H 0.20375 0.75085 0.53282
 H2384 H 0.24091 0.77527 0.54207
 C2385 C 0.28810 0.67889 0.58981
 C2386 C 0.29338 0.68983 0.58165
 C2387 C 0.30751 0.69459 0.58401
 C2388 C 0.31581 0.68866 0.59425
 C2389 C 0.31028 0.67795 0.60232
 C2390 C 0.29640 0.67313 0.59990
 C2391 C 0.31323 0.70534 0.57624
 C2392 C 0.30516 0.71175 0.56636
 C2393 C 0.29093 0.70763 0.56380
 C2394 C 0.28502 0.69633 0.57145
 C2395 C 0.27087 0.69203 0.56879
 C2396 C 0.26254 0.69884 0.55944
 C2397 C 0.26793 0.71013 0.55224
 C2398 C 0.28227 0.71459 0.55405
 C2399 C 0.28713 0.72604 0.54621
 C2400 C 0.27791 0.73303 0.53746
 C2401 C 0.26370 0.72880 0.53626
 C2402 C 0.25885 0.71722 0.54345
 H2403 H 0.27753 0.67460 0.58887
 H2404 H 0.32658 0.69244 0.59592
 H2405 H 0.29166 0.66503 0.60602
 H2406 H 0.32406 0.70897 0.57792
 H2407 H 0.31039 0.72005 0.56097
 H2408 H 0.26572 0.68347 0.57387
 H2409 H 0.25164 0.69532 0.55795
 H2410 H 0.29785 0.73006 0.54677
 H2411 H 0.28176 0.74205 0.53195
 H2412 H 0.24778 0.71400 0.54246
 C2413 C 0.32136 0.21111 1.09139
 C2414 C 0.31073 0.20562 1.08286
 C2415 C 0.30692 0.19128 1.08445
 C2416 C 0.31325 0.18304 1.09448
 C2417 C 0.32350 0.18881 1.10305
 C2418 C 0.32755 0.20286 1.10125
 C2419 C 0.29669 0.18527 1.07614
 C2420 C 0.28987 0.19324 1.06646
 C2421 C 0.29293 0.20768 1.06473
 C2422 C 0.30361 0.21394 1.07302
 C2423 C 0.30659 0.22841 1.07144
 C2424 C 0.29905 0.23663 1.06253
 C2425 C 0.28839 0.23081 1.05465
 C2426 C 0.28537 0.21620 1.05529
 C2427 C 0.27468 0.21089 1.04664
 C2428 C 0.26689 0.21990 1.03833
 C2429 C 0.26951 0.23437 1.03843
 C2430 C 0.28047 0.23969 1.04635
 H2431 H 0.32514 0.22178 1.09086
 H2432 H 0.31015 0.17212 1.09560
 H2433 H 0.33538 0.20774 1.10766
 H2434 H 0.29380 0.17429 1.07724
 H2435 H 0.28199 0.18778 1.06063
 H2436 H 0.31451 0.23391 1.07716
 H2437 H 0.30149 0.24777 1.06193
 H2438 H 0.27190 0.19991 1.04618
 H2439 H 0.25845 0.21562 1.03219
 H2440 H 0.28259 0.25092 1.04629
 C2441 C 0.82472 0.71383 1.09167
 C2442 C 0.81495 0.70859 1.08214
 C2443 C 0.81126 0.69414 1.08289
 C2444 C 0.81660 0.68562 1.09318
 C2445 C 0.82584 0.69115 1.10281
 C2446 C 0.83000 0.70525 1.10179
 C2447 C 0.80211 0.68830 1.07347
 C2448 C 0.79625 0.69650 1.06343
 C2449 C 0.79912 0.71105 1.06252
 C2450 C 0.80860 0.71721 1.07206
 C2451 C 0.81105 0.73186 1.07150
 C2452 C 0.80421 0.74029 1.06226
 C2453 C 0.79481 0.73452 1.05305
 C2454 C 0.79242 0.71979 1.05270
 C2455 C 0.78314 0.71454 1.04271
 C2456 C 0.77590 0.72368 1.03411
 C2457 C 0.77770 0.73824 1.03518
 C2458 C 0.78746 0.74354 1.04441
 H2459 H 0.82852 0.72451 1.09167
 H2460 H 0.81350 0.67465 1.09368
 H2461 H 0.83713 0.70988 1.10902
 H2462 H 0.79933 0.67723 1.07392
 H2463 H 0.78915 0.69114 1.05672
 H2464 H 0.81790 0.73731 1.07836
 H2465 H 0.80615 0.75154 1.06245
 H2466 H 0.78109 0.70348 1.04136
 H2467 H 0.76845 0.71938 1.02695
 H2468 H 0.78904 0.75483 1.04509
 C2469 C 0.78904 0.17843 0.58948
 C2470 C 0.79483 0.18891 0.58108
 C2471 C 0.80948 0.19231 0.58266
 C2472 C 0.81762 0.18604 0.59280
 C2473 C 0.81148 0.17615 0.60140
 C2474 C 0.79723 0.17223 0.59944
 C2475 C 0.81589 0.20211 0.57427
 C2476 C 0.80805 0.20884 0.56443
 C2477 C 0.79331 0.20626 0.56277
 C2478 C 0.78655 0.19625 0.57135
 C2479 C 0.77164 0.19433 0.57029
 C2480 C 0.76351 0.20219 0.56150
 C2481 C 0.76991 0.21200 0.55315
 C2482 C 0.78494 0.21383 0.55324
 C2483 C 0.79087 0.22335 0.54389
 C2484 C 0.78209 0.23138 0.53558
 C2485 C 0.76723 0.23017 0.53634
 C2486 C 0.76124 0.22022 0.54489
 H2487 H 0.77821 0.17474 0.58867
 H2488 H 0.82874 0.18892 0.59402
 H2489 H 0.79217 0.16457 0.60583
 H2490 H 0.82710 0.20472 0.57540
 H2491 H 0.81379 0.21646 0.55859
 H2492 H 0.76573 0.18719 0.57649
 H2493 H 0.75203 0.20065 0.56134
 H2494 H 0.80221 0.22484 0.54275
 H2495 H 0.78691 0.23888 0.52884
 H2496 H 0.74972 0.21903 0.54523
 C2497 C 0.68173 0.71329 0.40442
 C2498 C 0.69005 0.70732 0.41473
 C2499 C 0.69106 0.69243 0.41526
 C2500 C 0.68494 0.68407 0.40525
 C2501 C 0.67734 0.69024 0.39479
 C2502 C 0.67548 0.70486 0.39467
 C2503 C 0.69832 0.68595 0.42568
 C2504 C 0.70486 0.69390 0.43553
 C2505 C 0.70480 0.70876 0.43512
 C2506 C 0.69751 0.71557 0.42440
 C2507 C 0.69848 0.73036 0.42333
 C2508 C 0.70655 0.73821 0.43220
 C2509 C 0.71363 0.73174 0.44273
 C2510 C 0.71240 0.71701 0.44469
 C2511 C 0.71909 0.71117 0.45605
 C2512 C 0.72755 0.71944 0.46440
 C2513 C 0.72960 0.73373 0.46172
 C2514 C 0.72228 0.73990 0.45110
 H2515 H 0.67975 0.72443 0.40365
 H2516 H 0.68609 0.67272 0.40561
 H2517 H 0.66949 0.70988 0.38679
 H2518 H 0.69903 0.67457 0.42620
 H2519 H 0.71043 0.68802 0.44306
 H2520 H 0.69363 0.73620 0.41536
 H2521 H 0.70738 0.74948 0.43072
 H2522 H 0.71805 0.70025 0.45875
 H2523 H 0.73299 0.71451 0.47268
 H2524 H 0.72361 0.75106 0.44918
 C2525 C 0.67931 0.20914 -0.09121
 C2526 C 0.68951 0.20312 -0.08253
 C2527 C 0.69307 0.18874 -0.08444
 C2528 C 0.68681 0.18093 -0.09480
 C2529 C 0.67698 0.18721 -0.10348
 C2530 C 0.67322 0.20132 -0.10145
 C2531 C 0.70305 0.18227 -0.07617
 C2532 C 0.70995 0.18982 -0.06626
 C2533 C 0.70711 0.20426 -0.06417
 C2534 C 0.69653 0.21096 -0.07230
 C2535 C 0.69355 0.22536 -0.07013
 C2536 C 0.70120 0.23319 -0.06099
 C2537 C 0.71194 0.22700 -0.05343
 C2538 C 0.71478 0.21237 -0.05451
 C2539 C 0.72547 0.20664 -0.04608
 C2540 C 0.73346 0.21527 -0.03762
 C2541 C 0.73103 0.22977 -0.03730
 C2542 C 0.72007 0.23551 -0.04498
 H2543 H 0.67589 0.21994 -0.09058
 H2544 H 0.68973 0.16998 -0.09612
 H2545 H 0.66576 0.20658 -0.10797
 H2546 H 0.70576 0.17125 -0.07752
 H2547 H 0.71770 0.18404 -0.06055
 H2548 H 0.68550 0.23108 -0.07551
 H2549 H 0.69879 0.24431 -0.05995
 H2550 H 0.72809 0.19560 -0.04592
 H2551 H 0.74190 0.21068 -0.03165
 H2552 H 0.71815 0.24678 -0.04460
 C2553 C 0.17993 0.70866 -0.09043
 C2554 C 0.19103 0.70302 -0.08253
 C2555 C 0.19442 0.68856 -0.08418
 C2556 C 0.18748 0.68045 -0.09393
 C2557 C 0.17698 0.68644 -0.10210
 C2558 C 0.17312 0.70053 -0.10003
 C2559 C 0.20486 0.68232 -0.07624
 C2560 C 0.21224 0.69015 -0.06683
 C2561 C 0.20968 0.70470 -0.06514
 C2562 C 0.19898 0.71126 -0.07321
 C2563 C 0.19692 0.72595 -0.07208
 C2564 C 0.20515 0.73401 -0.06358
 C2565 C 0.21559 0.72782 -0.05568
 C2566 C 0.21779 0.71304 -0.05599
 C2567 C 0.22819 0.70734 -0.04724
 C2568 C 0.23644 0.71608 -0.03910
 C2569 C 0.23465 0.73068 -0.03952
 C2570 C 0.22404 0.73644 -0.04761
 H2571 H 0.17619 0.71934 -0.08952
 H2572 H 0.19037 0.66948 -0.09519
 H2573 H 0.16500 0.70553 -0.10604
 H2574 H 0.20745 0.67126 -0.07739
 H2575 H 0.22027 0.68453 -0.06129
 H2576 H 0.18931 0.73172 -0.07796
 H2577 H 0.20341 0.74530 -0.06330
 H2578 H 0.23023 0.69622 -0.04644
 H2579 H 0.24451 0.71147 -0.03274
 H2580 H 0.22248 0.74776 -0.04771
 C2581 C 0.20983 0.18551 0.40441
 C2582 C 0.20427 0.19489 0.41404
 C2583 C 0.18948 0.19817 0.41342
 C2584 C 0.18069 0.19196 0.40366
 C2585 C 0.18643 0.18236 0.39448
 C2586 C 0.20107 0.17938 0.39492
 C2587 C 0.18357 0.20760 0.42256
 C2588 C 0.19200 0.21395 0.43225
 C2589 C 0.20677 0.21104 0.43327
 C2590 C 0.21295 0.20121 0.42410
 C2591 C 0.22764 0.19797 0.42527
 C2592 C 0.23617 0.20454 0.43459
 C2593 C 0.23048 0.21445 0.44328
 C2594 C 0.21567 0.21771 0.44303
 C2595 C 0.21056 0.22767 0.45246
 C2596 C 0.21990 0.23438 0.46130
 C2597 C 0.23453 0.23139 0.46097
 C2598 C 0.23968 0.22129 0.45211
 H2599 H 0.22095 0.18268 0.40377
 H2600 H 0.16937 0.19439 0.40336
 H2601 H 0.20594 0.17236 0.38775
 H2602 H 0.17229 0.21017 0.42218
 H2603 H 0.18657 0.22116 0.43881
 H2604 H 0.23302 0.19037 0.41910
 H2605 H 0.24744 0.20186 0.43492
 H2606 H 0.19948 0.23066 0.45314
 H2607 H 0.21578 0.24224 0.46811
 H2608 H 0.25104 0.21896 0.45194
 C2609 C 0.28578 0.40014 0.68994
 C2610 C 0.29225 0.41134 0.69698
 C2611 C 0.30735 0.41255 0.69628
 C2612 C 0.31553 0.40253 0.68927
 C2613 C 0.30888 0.39146 0.68247
 C2614 C 0.29397 0.39045 0.68284
 C2615 C 0.31419 0.42376 0.70255
 C2616 C 0.30643 0.43384 0.70953
 C2617 C 0.29142 0.43295 0.71078
 C2618 C 0.28426 0.42135 0.70463
 C2619 C 0.26939 0.41989 0.70664
 C2620 C 0.26179 0.42927 0.71450
 C2621 C 0.26857 0.44067 0.72046
 C2622 C 0.28337 0.44299 0.71839
 C2623 C 0.28947 0.45519 0.72419
 C2624 C 0.28140 0.46403 0.73242
 C2625 C 0.26705 0.46105 0.73510
 C2626 C 0.26061 0.44958 0.72878
 H2627 H 0.27440 0.39863 0.68951
 H2628 H 0.32706 0.40352 0.68886
 H2629 H 0.28852 0.38200 0.67771
 H2630 H 0.32572 0.42478 0.70203
 H2631 H 0.31260 0.44203 0.71418
 H2632 H 0.26328 0.41129 0.70264
 H2633 H 0.25046 0.42750 0.71601
 H2634 H 0.30044 0.45817 0.72263
 H2635 H 0.28653 0.47296 0.73709
 H2636 H 0.24939 0.44744 0.73058
 C2637 C 0.28951 0.90098 0.18676
 C2638 C 0.29580 0.91170 0.19456
 C2639 C 0.31093 0.91270 0.19458
 C2640 C 0.31931 0.90281 0.18763
 C2641 C 0.31282 0.89225 0.18006
 C2642 C 0.29791 0.89153 0.17959
 C2643 C 0.31760 0.92362 0.20143
 C2644 C 0.30960 0.93377 0.20807
 C2645 C 0.29453 0.93308 0.20857
 C2646 C 0.28758 0.92153 0.20216
 C2647 C 0.27268 0.91994 0.20384
 C2648 C 0.26479 0.92938 0.21138
 C2649 C 0.27130 0.94097 0.21728
 C2650 C 0.28618 0.94326 0.21568
 C2651 C 0.29204 0.95564 0.22133
 C2652 C 0.28361 0.96480 0.22890
 C2653 C 0.26916 0.96188 0.23114
 C2654 C 0.26301 0.95014 0.22505
 H2655 H 0.27813 0.89979 0.18569
 H2656 H 0.33087 0.90357 0.18779
 H2657 H 0.29266 0.88349 0.17374
 H2658 H 0.32915 0.92444 0.20153
 H2659 H 0.31560 0.94183 0.21312
 H2660 H 0.26682 0.91115 0.19987
 H2661 H 0.25344 0.92755 0.21264
 H2662 H 0.30307 0.95857 0.22006
 H2663 H 0.28851 0.97395 0.23342
 H2664 H 0.25173 0.94803 0.22654
 C2665 C 0.79033 0.40023 0.19103
 C2666 C 0.79706 0.41119 0.19819
 C2667 C 0.81218 0.41213 0.19744
 C2668 C 0.82012 0.40213 0.19019
 C2669 C 0.81319 0.39140 0.18317
 C2670 C 0.79828 0.39059 0.18365
 C2671 C 0.81927 0.42310 0.20384
 C2672 C 0.81172 0.43334 0.21081
 C2673 C 0.79668 0.43282 0.21195
 C2674 C 0.78930 0.42129 0.20590
 C2675 C 0.77443 0.42006 0.20801
 C2676 C 0.76699 0.42974 0.21566
 C2677 C 0.77394 0.44120 0.22132
 C2678 C 0.78880 0.44318 0.21930
 C2679 C 0.79509 0.45545 0.22478
 C2680 C 0.78710 0.46478 0.23259
 C2681 C 0.77267 0.46216 0.23519
 C2682 C 0.76608 0.45057 0.22925
 H2683 H 0.77891 0.39893 0.19064
 H2684 H 0.83167 0.40292 0.18968
 H2685 H 0.79265 0.38237 0.17836
 H2686 H 0.83082 0.42386 0.20336
 H2687 H 0.81806 0.44136 0.21554
 H2688 H 0.76821 0.41143 0.20422
 H2689 H 0.75563 0.42818 0.21721
 H2690 H 0.80614 0.45815 0.22322
 H2691 H 0.79233 0.47381 0.23699
 H2692 H 0.75480 0.44871 0.23101
 C2693 C 0.78421 0.90698 0.68209
 C2694 C 0.79116 0.91729 0.68995
 C2695 C 0.80631 0.91762 0.68959
 C2696 C 0.81403 0.90737 0.68253
 C2697 C 0.80697 0.89683 0.67538
 C2698 C 0.79203 0.89696 0.67493
 C2699 C 0.81373 0.92801 0.69647
 C2700 C 0.80652 0.93798 0.70401
 C2701 C 0.79149 0.93774 0.70528
 C2702 C 0.78369 0.92711 0.69827
 C2703 C 0.76879 0.92622 0.70032
 C2704 C 0.76181 0.93505 0.70922
 C2705 C 0.76927 0.94537 0.71618
 C2706 C 0.78409 0.94730 0.71390
 C2707 C 0.79092 0.95854 0.72063
 C2708 C 0.78359 0.96666 0.73001
 C2709 C 0.76926 0.96391 0.73295
 C2710 C 0.76205 0.95353 0.72572
 H2711 H 0.77275 0.90637 0.68124
 H2712 H 0.82561 0.90756 0.68266
 H2713 H 0.78633 0.88900 0.66935
 H2714 H 0.82530 0.92837 0.69612
 H2715 H 0.81316 0.94541 0.70921
 H2716 H 0.76224 0.91835 0.69562
 H2717 H 0.75044 0.93364 0.71083
 H2718 H 0.80194 0.96128 0.71896
 H2719 H 0.78932 0.97477 0.73538
 H2720 H 0.75084 0.95158 0.72777
 C2721 C 0.71262 0.59565 0.68262
 C2722 C 0.70583 0.58542 0.69066
 C2723 C 0.69068 0.58529 0.69088
 C2724 C 0.68281 0.59556 0.68400
 C2725 C 0.68975 0.60591 0.67650
 C2726 C 0.70468 0.60566 0.67566
 C2727 C 0.68343 0.57500 0.69807
 C2728 C 0.69085 0.56482 0.70516
 C2729 C 0.70593 0.56474 0.70565
 C2730 C 0.71354 0.57541 0.69852
 C2731 C 0.72854 0.57607 0.69991
 C2732 C 0.73585 0.56683 0.70813
 C2733 C 0.72863 0.55631 0.71501
 C2734 C 0.71365 0.55473 0.71351
 C2735 C 0.70703 0.54331 0.72015
 C2736 C 0.71482 0.53458 0.72866
 C2737 C 0.72937 0.53693 0.73082
 C2738 C 0.73629 0.54756 0.72369
 H2739 H 0.72404 0.59617 0.68139
 H2740 H 0.67124 0.59544 0.68444
 H2741 H 0.71032 0.61344 0.66983
 H2742 H 0.67185 0.57484 0.69826
 H2743 H 0.68438 0.55744 0.71061
 H2744 H 0.73496 0.58401 0.69518
 H2745 H 0.74731 0.56803 0.70920
 H2746 H 0.69586 0.54087 0.71903
 H2747 H 0.70932 0.52630 0.73399
 H2748 H 0.74765 0.54921 0.72515
 C2749 C 0.71112 0.09431 0.18810
 C2750 C 0.70409 0.08322 0.19483
 C2751 C 0.68907 0.08212 0.19328
 C2752 C 0.68149 0.09210 0.18574
 C2753 C 0.68863 0.10322 0.17947
 C2754 C 0.70350 0.10411 0.18064
 C2755 C 0.68166 0.07117 0.19937
 C2756 C 0.68875 0.06134 0.20717
 C2757 C 0.70364 0.06215 0.20932
 C2758 C 0.71142 0.07334 0.20312
 C2759 C 0.72619 0.07453 0.20569
 C2760 C 0.73311 0.06537 0.21423
 C2761 C 0.72570 0.05452 0.22043
 C2762 C 0.71097 0.05243 0.21783
 C2763 C 0.70420 0.04083 0.22407
 C2764 C 0.71156 0.03239 0.23316
 C2765 C 0.72584 0.03518 0.23627
 C2766 C 0.73295 0.04597 0.22954
 H2767 H 0.72252 0.09580 0.18837
 H2768 H 0.67000 0.09118 0.18475
 H2769 H 0.70933 0.11262 0.17603
 H2770 H 0.67019 0.07022 0.19816
 H2771 H 0.68215 0.05339 0.21167
 H2772 H 0.73276 0.08271 0.20157
 H2773 H 0.74440 0.06694 0.21615
 H2774 H 0.69321 0.03807 0.22230
 H2775 H 0.70591 0.02397 0.23815
 H2776 H 0.74414 0.04792 0.23167
 C2777 C 0.21016 0.59567 0.18489
 C2778 C 0.20387 0.58761 0.19514
 C2779 C 0.18897 0.58917 0.19731
 C2780 C 0.18096 0.59895 0.18986
 C2781 C 0.18749 0.60702 0.17991
 C2782 C 0.20211 0.60514 0.17748
 C2783 C 0.18215 0.58094 0.20687
 C2784 C 0.18975 0.57112 0.21431
 C2785 C 0.20466 0.56939 0.21272
 C2786 C 0.21187 0.57807 0.20323
 C2787 C 0.22691 0.57721 0.20235
 C2788 C 0.23466 0.56814 0.21034
 C2789 C 0.22780 0.55939 0.21939
 C2790 C 0.21270 0.55959 0.22057
 C2791 C 0.20636 0.54996 0.22958
 C2792 C 0.21477 0.54108 0.23746
 C2793 C 0.22968 0.54155 0.23664
 C2794 C 0.23609 0.55056 0.22742
 H2795 H 0.22125 0.59480 0.18215
 H2796 H 0.16960 0.60011 0.19171
 H2797 H 0.20754 0.61119 0.16991
 H2798 H 0.17076 0.58206 0.20859
 H2799 H 0.18366 0.56529 0.22152
 H2800 H 0.23316 0.58376 0.19586
 H2801 H 0.24622 0.56804 0.20945
 H2802 H 0.19497 0.54897 0.23074
 H2803 H 0.20961 0.53404 0.24443
 H2804 H 0.24765 0.55069 0.22654
 C2805 C 0.18729 0.09869 0.70587
 C2806 C 0.19795 0.08928 0.70125
 C2807 C 0.20155 0.08978 0.68756
 C2808 C 0.19501 0.09967 0.67908
 C2809 C 0.18459 0.10901 0.68393
 C2810 C 0.18081 0.10831 0.69737
 C2811 C 0.21166 0.08042 0.68242
 C2812 C 0.21839 0.07061 0.69055
 C2813 C 0.21548 0.06992 0.70431
 C2814 C 0.20516 0.07950 0.70975
 C2815 C 0.20260 0.07921 0.72358
 C2816 C 0.20995 0.07011 0.73185
 C2817 C 0.22004 0.06078 0.72675
 C2818 C 0.22278 0.06024 0.71290
 C2819 C 0.23283 0.05011 0.70833
 C2820 C 0.24018 0.04140 0.71725
 C2821 C 0.23780 0.04256 0.73093
 C2822 C 0.22753 0.05209 0.73556
 H2823 H 0.18357 0.09888 0.71599
 H2824 H 0.19792 0.09999 0.66866
 H2825 H 0.17289 0.11540 0.70150
 H2826 H 0.21442 0.08068 0.67196
 H2827 H 0.22610 0.06388 0.68575
 H2828 H 0.19518 0.08615 0.72849
 H2829 H 0.20777 0.07047 0.74243
 H2830 H 0.23530 0.04865 0.69797
 H2831 H 0.24800 0.03399 0.71346
 H2832 H 0.22543 0.05278 0.74614
 C2833 C 0.31973 0.59761 0.29019
 C2834 C 0.31130 0.58650 0.29534
 C2835 C 0.31017 0.58537 0.30934
 C2836 C 0.31630 0.59557 0.31766
 C2837 C 0.32393 0.60691 0.31233
 C2838 C 0.32593 0.60761 0.29857
 C2839 C 0.30269 0.57421 0.31501
 C2840 C 0.29588 0.56431 0.30710
 C2841 C 0.29598 0.56536 0.29311
 C2842 C 0.30376 0.57668 0.28713
 C2843 C 0.30322 0.57817 0.27318
 C2844 C 0.29502 0.56926 0.26537
 C2845 C 0.28727 0.55830 0.27105
 C2846 C 0.28802 0.55583 0.28493
 C2847 C 0.28046 0.54411 0.29003
 C2848 C 0.27171 0.53595 0.28186
 C2849 C 0.27026 0.53909 0.26836
 C2850 C 0.27841 0.55003 0.26295
 H2851 H 0.32175 0.59893 0.27973
 H2852 H 0.31503 0.59474 0.32834
 H2853 H 0.33191 0.61618 0.29421
 H2854 H 0.30196 0.57319 0.32571
 H2855 H 0.29015 0.55623 0.31235
 H2856 H 0.30859 0.58652 0.26797
 H2857 H 0.29458 0.57112 0.25476
 H2858 H 0.28091 0.54102 0.30031
 H2859 H 0.26560 0.52747 0.28625
 H2860 H 0.27759 0.55231 0.25242
 C2861 C 0.28713 0.09926 0.81978
 C2862 C 0.29349 0.08895 0.81148
 C2863 C 0.30863 0.08840 0.81100
 C2864 C 0.31689 0.09842 0.81781
 C2865 C 0.31037 0.10885 0.82559
 C2866 C 0.29545 0.10898 0.82672
 C2867 C 0.31547 0.07792 0.80365
 C2868 C 0.30765 0.06797 0.79664
 C2869 C 0.29257 0.06836 0.79636
 C2870 C 0.28538 0.07925 0.80363
 C2871 C 0.27040 0.08044 0.80237
 C2872 C 0.26270 0.07145 0.79420
 C2873 C 0.26950 0.06067 0.78723
 C2874 C 0.28445 0.05861 0.78857
 C2875 C 0.29064 0.04695 0.78189
 C2876 C 0.28250 0.03844 0.77349
 C2877 C 0.26798 0.04120 0.77148
 C2878 C 0.26146 0.05213 0.77863
 H2879 H 0.27575 0.10003 0.82125
 H2880 H 0.32845 0.09805 0.81713
 H2881 H 0.29012 0.11683 0.83277
 H2882 H 0.32704 0.07740 0.80328
 H2883 H 0.31382 0.06041 0.79107
 H2884 H 0.26431 0.08865 0.80715
 H2885 H 0.25126 0.07304 0.79326
 H2886 H 0.30174 0.04413 0.78291
 H2887 H 0.28772 0.02997 0.76812
 H2888 H 0.25014 0.05415 0.77729
 C2889 C 0.81187 0.59405 0.79285
 C2890 C 0.80085 0.58547 0.79797
 C2891 C 0.79700 0.58730 0.81149
 C2892 C 0.80345 0.59790 0.81924
 C2893 C 0.81392 0.60675 0.81376
 C2894 C 0.81818 0.60443 0.80058
 C2895 C 0.78661 0.57866 0.81715
 C2896 C 0.77978 0.56837 0.80964
 C2897 C 0.78288 0.56648 0.79602
 C2898 C 0.79351 0.57528 0.79007
 C2899 C 0.79616 0.57392 0.77631
 C2900 C 0.78860 0.56452 0.76856
 C2901 C 0.77823 0.55590 0.77416
 C2902 C 0.77540 0.55642 0.78800
 C2903 C 0.76505 0.54693 0.79310
 C2904 C 0.75744 0.53793 0.78465
 C2905 C 0.75986 0.53818 0.77095
 C2906 C 0.77047 0.54696 0.76584
 H2907 H 0.81598 0.59305 0.78291
 H2908 H 0.80017 0.59932 0.82947
 H2909 H 0.82639 0.61072 0.79596
 H2910 H 0.78366 0.57990 0.82750
 H2911 H 0.77180 0.56228 0.81477
 H2912 H 0.80375 0.58030 0.77102
 H2913 H 0.79081 0.56409 0.75799
 H2914 H 0.76253 0.54624 0.80352
 H2915 H 0.74936 0.53105 0.78879
 H2916 H 0.77254 0.54692 0.75522
 C2917 C 0.80903 0.09327 0.29693
 C2918 C 0.79801 0.08480 0.30227
 C2919 C 0.79457 0.08662 0.31590
 C2920 C 0.80166 0.09686 0.32361
 C2921 C 0.81247 0.10522 0.31805
 C2922 C 0.81606 0.10325 0.30468
 C2923 C 0.78409 0.07822 0.32175
 C2924 C 0.77692 0.06801 0.31441
 C2925 C 0.77978 0.06592 0.30077
 C2926 C 0.79032 0.07465 0.29455
 C2927 C 0.79260 0.07318 0.28075
 C2928 C 0.78473 0.06379 0.27321
 C2929 C 0.77452 0.05516 0.27910
 C2930 C 0.77214 0.05571 0.29301
 C2931 C 0.76216 0.04605 0.29845
 C2932 C 0.75437 0.03688 0.29027
 C2933 C 0.75623 0.03714 0.27649
 C2934 C 0.76653 0.04609 0.27104
 H2935 H 0.81266 0.09242 0.28681
 H2936 H 0.79890 0.09817 0.33399
 H2937 H 0.82426 0.10958 0.30002
 H2938 H 0.78138 0.07955 0.33215
 H2939 H 0.76889 0.06211 0.31966
 H2940 H 0.80017 0.07943 0.27529
 H2941 H 0.78668 0.06330 0.26260
 H2942 H 0.76012 0.04526 0.30895
 H2943 H 0.74660 0.02986 0.29470
 H2944 H 0.76822 0.04607 0.26037
 C2945 C 0.71807 0.40569 0.32035
 C2946 C 0.71231 0.41645 0.31223
 C2947 C 0.69722 0.41744 0.31130
 C2948 C 0.68843 0.40743 0.31754
 C2949 C 0.69438 0.39656 0.32512
 C2950 C 0.70923 0.39598 0.32668
 C2951 C 0.69096 0.42835 0.30410
 C2952 C 0.69933 0.43827 0.29764
 C2953 C 0.71440 0.43746 0.29780
 C2954 C 0.72099 0.42619 0.30500
 C2955 C 0.73600 0.42470 0.30432
 C2956 C 0.74428 0.43373 0.29674
 C2957 C 0.73806 0.44482 0.28979
 C2958 C 0.72311 0.44717 0.29053
 C2959 C 0.71751 0.45902 0.28374
 C2960 C 0.72626 0.46747 0.27584
 C2961 C 0.74083 0.46445 0.27448
 C2962 C 0.74672 0.45334 0.28176
 H2963 H 0.72935 0.40454 0.32216
 H2964 H 0.67691 0.40819 0.31657
 H2965 H 0.71411 0.38777 0.33260
 H2966 H 0.67943 0.42923 0.30344
 H2967 H 0.69359 0.44622 0.29219
 H2968 H 0.74169 0.41627 0.30911
 H2969 H 0.75571 0.43191 0.29621
 H2970 H 0.70640 0.46198 0.28421
 H2971 H 0.72151 0.47606 0.27032
 H2972 H 0.75806 0.45111 0.28089
 C2973 C 0.69474 0.89895 0.79400
 C2974 C 0.70308 0.90960 0.79996
 C2975 C 0.70534 0.90885 0.81387
 C2976 C 0.69883 0.89815 0.82148
 C2977 C 0.69016 0.88798 0.81539
 C2978 C 0.68844 0.88844 0.80157
 C2979 C 0.71414 0.91872 0.82005
 C2980 C 0.72094 0.92920 0.81272
 C2981 C 0.71895 0.93043 0.79886
 C2982 C 0.70948 0.92072 0.79248
 C2983 C 0.70659 0.92249 0.77883
 C2984 C 0.71340 0.93271 0.77142
 C2985 C 0.72328 0.94169 0.77726
 C2986 C 0.72610 0.94095 0.79108
 C2987 C 0.73618 0.95062 0.79636
 C2988 C 0.74339 0.96018 0.78811
 C2989 C 0.74080 0.96034 0.77442
 C2990 C 0.73050 0.95130 0.76917
 H2991 H 0.69310 0.89816 0.78344
 H2992 H 0.70044 0.89782 0.83214
 H2993 H 0.68234 0.88050 0.79639
 H2994 H 0.71596 0.91824 0.83067
 H2995 H 0.72765 0.93629 0.81826
 H2996 H 0.69894 0.91621 0.77350
 H2997 H 0.71101 0.93348 0.76090
 H2998 H 0.73897 0.95086 0.80674
 H2999 H 0.75133 0.96712 0.79237
 H3000 H 0.72829 0.95158 0.75860
 C3001 C 0.21305 0.40084 0.81887
 C3002 C 0.20723 0.41181 0.81104
 C3003 C 0.19213 0.41289 0.81034
 C3004 C 0.18337 0.40285 0.81659
 C3005 C 0.18938 0.39190 0.82405
 C3006 C 0.20425 0.39115 0.82528
 C3007 C 0.18583 0.42399 0.80342
 C3008 C 0.19416 0.43410 0.79715
 C3009 C 0.20924 0.43328 0.79720
 C3010 C 0.21586 0.42171 0.80392
 C3011 C 0.23083 0.42013 0.80293
 C3012 C 0.23906 0.42942 0.79557
 C3013 C 0.23282 0.44089 0.78920
 C3014 C 0.21790 0.44331 0.79026
 C3015 C 0.21231 0.45559 0.78418
 C3016 C 0.22102 0.46444 0.77660
 C3017 C 0.23553 0.46136 0.77482
 C3018 C 0.24142 0.44977 0.78144
 H3019 H 0.22436 0.39957 0.82045
 H3020 H 0.17184 0.40369 0.81584
 H3021 H 0.20918 0.38285 0.83106
 H3022 H 0.17430 0.42490 0.80286
 H3023 H 0.18841 0.44220 0.79192
 H3024 H 0.23652 0.41143 0.80730
 H3025 H 0.25046 0.42754 0.79480
 H3026 H 0.20125 0.45864 0.78505
 H3027 H 0.21627 0.47342 0.77164
 H3028 H 0.25272 0.44749 0.78028
 C3029 C 0.21593 0.90457 0.31607
 C3030 C 0.20993 0.91548 0.30830
 C3031 C 0.19481 0.91633 0.30759
 C3032 C 0.18620 0.90620 0.31390
 C3033 C 0.19239 0.89531 0.32129
 C3034 C 0.20730 0.89475 0.32245
 C3035 C 0.18835 0.92720 0.30050
 C3036 C 0.19654 0.93728 0.29403
 C3037 C 0.21162 0.93668 0.29410
 C3038 C 0.21842 0.92544 0.30115
 C3039 C 0.23346 0.92424 0.30045
 C3040 C 0.24155 0.93343 0.29287
 C3041 C 0.23510 0.94441 0.28596
 C3042 C 0.22013 0.94657 0.28685
 C3043 C 0.21432 0.95844 0.28023
 C3044 C 0.22287 0.96701 0.27224
 C3045 C 0.23742 0.96407 0.27061
 C3046 C 0.24355 0.95304 0.27784
 H3047 H 0.22725 0.90331 0.31753
 H3048 H 0.17466 0.90690 0.31321
 H3049 H 0.21244 0.88654 0.32817
 H3050 H 0.17681 0.92789 0.29986
 H3051 H 0.19066 0.94516 0.28862
 H3052 H 0.23936 0.91598 0.30527
 H3053 H 0.25301 0.93182 0.29233
 H3054 H 0.20321 0.96133 0.28092
 H3055 H 0.21796 0.97563 0.26687
 H3056 H 0.25491 0.95097 0.27686
 C3057 C 0.40501 0.31212 0.70041
 C3058 C 0.41337 0.30123 0.69469
 C3059 C 0.41183 0.29874 0.68088
 C3060 C 0.40183 0.30642 0.67337
 C3061 C 0.39332 0.31684 0.67932
 C3062 C 0.39520 0.31973 0.69284
 C3063 C 0.42016 0.28849 0.67463
 C3064 C 0.42993 0.28050 0.68178
 C3065 C 0.43162 0.28226 0.69562
 C3066 C 0.42306 0.29269 0.70221
 C3067 C 0.42416 0.29395 0.71615
 C3068 C 0.43307 0.28523 0.72344
 C3069 C 0.44147 0.27508 0.71719
 C3070 C 0.44124 0.27365 0.70317
 C3071 C 0.45059 0.26356 0.69739
 C3072 C 0.45917 0.25485 0.70530
 C3073 C 0.45863 0.25587 0.71914
 C3074 C 0.44997 0.26618 0.72499
 H3075 H 0.40575 0.31509 0.71070
 H3076 H 0.40070 0.30426 0.66285
 H3077 H 0.38884 0.32773 0.69775
 H3078 H 0.41906 0.28655 0.66407
 H3079 H 0.43575 0.27269 0.67618
 H3080 H 0.41795 0.30134 0.72186
 H3081 H 0.43331 0.28642 0.73416
 H3082 H 0.45157 0.26213 0.68682
 H3083 H 0.46597 0.24706 0.70059
 H3084 H 0.44982 0.26721 0.73573
 C3085 C 0.40318 0.78997 0.18641
 C3086 C 0.41306 0.79675 0.19492
 C3087 C 0.41347 0.81167 0.19474
 C3088 C 0.40362 0.81936 0.18710
 C3089 C 0.39360 0.81244 0.17911
 C3090 C 0.39369 0.79772 0.17862
 C3091 C 0.42364 0.81884 0.20224
 C3092 C 0.43348 0.81156 0.20995
 C3093 C 0.43320 0.79672 0.21085
 C3094 C 0.42250 0.78924 0.20356
 C3095 C 0.42121 0.77459 0.20555
 C3096 C 0.43004 0.76746 0.21433
 C3097 C 0.44078 0.77452 0.22120
 C3098 C 0.44287 0.78915 0.21925
 C3099 C 0.45453 0.79557 0.22587
 C3100 C 0.46311 0.78791 0.23463
 C3101 C 0.46030 0.77371 0.23712
 C3102 C 0.44930 0.76701 0.23020
 H3103 H 0.40264 0.77870 0.18538
 H3104 H 0.40384 0.83077 0.18728
 H3105 H 0.38614 0.79213 0.17243
 H3106 H 0.42405 0.83024 0.20211
 H3107 H 0.44085 0.81793 0.21553
 H3108 H 0.41303 0.76837 0.20087
 H3109 H 0.42840 0.75628 0.21580
 H3110 H 0.45735 0.80645 0.22443
 H3111 H 0.47174 0.79319 0.23977
 H3112 H 0.44733 0.75591 0.23192
 C3113 C 0.90250 0.28978 0.18589
 C3114 C 0.91286 0.29642 0.19400
 C3115 C 0.91333 0.31134 0.19388
 C3116 C 0.90340 0.31915 0.18640
 C3117 C 0.89303 0.31236 0.17870
 C3118 C 0.89283 0.29764 0.17839
 C3119 C 0.92362 0.31844 0.20130
 C3120 C 0.93346 0.31109 0.20896
 C3121 C 0.93327 0.29625 0.20970
 C3122 C 0.92265 0.28880 0.20226
 C3123 C 0.92190 0.27402 0.20363
 C3124 C 0.93095 0.26679 0.21214
 C3125 C 0.94136 0.27387 0.21941
 C3126 C 0.94302 0.28863 0.21800
 C3127 C 0.95430 0.29512 0.22513
 C3128 C 0.96283 0.28740 0.23389
 C3129 C 0.96043 0.27303 0.23587
 C3130 C 0.94991 0.26626 0.22834
 H3131 H 0.90156 0.27852 0.18504
 H3132 H 0.90382 0.33055 0.18653
 H3133 H 0.88492 0.29211 0.17254
 H3134 H 0.92405 0.32984 0.20125
 H3135 H 0.94086 0.31745 0.21452
 H3136 H 0.91410 0.26769 0.19856
 H3137 H 0.92971 0.25549 0.21311
 H3138 H 0.95678 0.30614 0.22424
 H3139 H 0.97100 0.29281 0.23954
 H3140 H 0.94822 0.25506 0.22964
 C3141 C 0.90239 0.81865 0.70589
 C3142 C 0.91197 0.80838 0.70084
 C3143 C 0.91150 0.80550 0.68702
 C3144 C 0.90140 0.81219 0.67885
 C3145 C 0.89171 0.82199 0.68412
 C3146 C 0.89246 0.82527 0.69766
 C3147 C 0.92103 0.79589 0.68142
 C3148 C 0.93097 0.78886 0.68921
 C3149 C 0.93165 0.79101 0.70308
 C3150 C 0.92190 0.80085 0.70900
 C3151 C 0.92212 0.80257 0.72293
 C3152 C 0.93139 0.79490 0.73084
 C3153 C 0.94094 0.78532 0.72525
 C3154 C 0.94149 0.78338 0.71129
 C3155 C 0.95179 0.77376 0.70623
 C3156 C 0.96066 0.76608 0.71475
 C3157 C 0.95955 0.76770 0.72852
 C3158 C 0.94984 0.77751 0.73367
 H3159 H 0.90226 0.82190 0.71613
 H3160 H 0.90110 0.80971 0.66835
 H3161 H 0.88514 0.83277 0.70207
 H3162 H 0.92076 0.79372 0.67084
 H3163 H 0.93778 0.78151 0.68406
 H3164 H 0.91498 0.80954 0.72816
 H3165 H 0.93099 0.79642 0.74151
 H3166 H 0.95326 0.77188 0.69577
 H3167 H 0.96817 0.75858 0.71058
 H3168 H 0.94916 0.77901 0.74434
 C3169 C 0.59811 0.31728 0.29447
 C3170 C 0.58870 0.30714 0.29994
 C3171 C 0.58881 0.30537 0.31391
 C3172 C 0.59858 0.31281 0.32184
 C3173 C 0.60829 0.32229 0.31615
 C3174 C 0.60770 0.32468 0.30245
 C3175 C 0.57929 0.29605 0.31992
 C3176 C 0.56985 0.28813 0.31237
 C3177 C 0.56974 0.28899 0.29836
 C3178 C 0.57935 0.29863 0.29205
 C3179 C 0.57965 0.29914 0.27805
 C3180 C 0.57105 0.29047 0.27043
 C3181 C 0.56168 0.28102 0.27639
 C3182 C 0.56062 0.28026 0.29042
 C3183 C 0.55058 0.27065 0.29582
 C3184 C 0.54239 0.26193 0.28761
 C3185 C 0.54393 0.26246 0.27380
 C3186 C 0.55347 0.27217 0.26828
 H3187 H 0.59837 0.31979 0.28405
 H3188 H 0.59864 0.31113 0.33248
 H3189 H 0.61494 0.33203 0.29777
 H3190 H 0.57920 0.29480 0.33063
 H3191 H 0.56299 0.28114 0.31784
 H3192 H 0.58673 0.30590 0.27256
 H3193 H 0.57187 0.29108 0.25970
 H3194 H 0.54878 0.26957 0.30634
 H3195 H 0.53504 0.25452 0.29208
 H3196 H 0.55451 0.27285 0.25757
 C3197 C 0.59769 0.80763 0.79156
 C3198 C 0.58644 0.79983 0.79737
 C3199 C 0.58562 0.79954 0.81144
 C3200 C 0.59608 0.80625 0.81923
 C3201 C 0.60739 0.81351 0.81325
 C3202 C 0.60793 0.81428 0.79937
 C3203 C 0.57445 0.79245 0.81768
 C3204 C 0.56421 0.78531 0.81031
 C3205 C 0.56487 0.78476 0.79630
 C3206 C 0.57618 0.79215 0.78973
 C3207 C 0.57715 0.79123 0.77575
 C3208 C 0.56776 0.78306 0.76846
 C3209 C 0.55688 0.77562 0.77471
 C3210 C 0.55492 0.77665 0.78865
 C3211 C 0.54327 0.76921 0.79431
 C3212 C 0.53464 0.76048 0.78652
 C3213 C 0.53732 0.75890 0.77293
 C3214 C 0.54819 0.76681 0.76705
 H3215 H 0.59897 0.80885 0.78100
 H3216 H 0.59539 0.80579 0.82997
 H3217 H 0.61651 0.81978 0.79439
 H3218 H 0.57367 0.79231 0.82842
 H3219 H 0.55610 0.77998 0.81597
 H3220 H 0.58537 0.79635 0.77006
 H3221 H 0.56918 0.78238 0.75779
 H3222 H 0.54063 0.76975 0.80471
 H3223 H 0.52617 0.75453 0.79123
 H3224 H 0.55009 0.76581 0.75645
 C3225 C 0.10037 0.29038 0.80746
 C3226 C 0.08923 0.29646 0.79989
 C3227 C 0.08831 0.31138 0.79956
 C3228 C 0.09808 0.31971 0.80677
 C3229 C 0.10867 0.31337 0.81457
 C3230 C 0.10979 0.29869 0.81468
 C3231 C 0.07753 0.31788 0.79222
 C3232 C 0.06754 0.30996 0.78524
 C3233 C 0.06791 0.29509 0.78532
 C3234 C 0.07899 0.28825 0.79273
 C3235 C 0.07946 0.27339 0.79280
 C3236 C 0.06969 0.26545 0.78575
 C3237 C 0.05896 0.27190 0.77839
 C3238 C 0.05769 0.28678 0.77814
 C3239 C 0.04627 0.29260 0.77064
 C3240 C 0.03698 0.28397 0.76337
 C3241 C 0.03877 0.26935 0.76335
 C3242 C 0.04961 0.26342 0.77109
 H3243 H 0.10214 0.27921 0.80818
 H3244 H 0.09714 0.33108 0.80667
 H3245 H 0.11805 0.29351 0.82040
 H3246 H 0.07677 0.32927 0.79189
 H3247 H 0.05963 0.31586 0.77983
 H3248 H 0.08731 0.26741 0.79819
 H3249 H 0.07060 0.25407 0.78603
 H3250 H 0.04431 0.30375 0.77006
 H3251 H 0.02864 0.28877 0.75743
 H3252 H 0.05087 0.25206 0.77128
 C3253 C 0.09761 0.81653 0.29349
 C3254 C 0.08870 0.80568 0.29841
 C3255 C 0.08962 0.80246 0.31213
 C3256 C 0.09952 0.80944 0.32032
 C3257 C 0.10855 0.81987 0.31515
 C3258 C 0.10732 0.82344 0.30172
 C3259 C 0.08072 0.79221 0.31759
 C3260 C 0.07097 0.78496 0.30975
 C3261 C 0.06986 0.78750 0.29597
 C3262 C 0.07900 0.79793 0.29018
 C3263 C 0.07838 0.80004 0.27632
 C3264 C 0.06931 0.79224 0.26834
 C3265 C 0.06030 0.78213 0.27379
 C3266 C 0.06016 0.77975 0.28770
 C3267 C 0.05037 0.76963 0.29265
 C3268 C 0.04159 0.76191 0.28407
 C3269 C 0.04233 0.76396 0.27033
 C3270 C 0.05154 0.77424 0.26531
 H3271 H 0.09739 0.82002 0.28333
 H3272 H 0.10014 0.80678 0.33077
 H3273 H 0.11407 0.83146 0.29741
 H3274 H 0.08131 0.78970 0.32808
 H3275 H 0.06465 0.77714 0.31478
 H3276 H 0.08505 0.80747 0.27118
 H3277 H 0.06940 0.79411 0.25772
 H3278 H 0.04923 0.76738 0.30308
 H3279 H 0.03447 0.75405 0.28816
 H3280 H 0.05193 0.77604 0.25467
 C3281 C 0.59487 0.70481 0.68803
 C3282 C 0.58634 0.69786 0.69760
 C3283 C 0.58834 0.68315 0.69918
 C3284 C 0.59866 0.67589 0.69158
 C3285 C 0.60704 0.68302 0.68221
 C3286 C 0.60498 0.69752 0.68054
 C3287 C 0.58008 0.67577 0.70835
 C3288 C 0.56989 0.68263 0.71609
 C3289 C 0.56759 0.69728 0.71503
 C3290 C 0.57604 0.70503 0.70568
 C3291 C 0.57408 0.71975 0.70488
 C3292 C 0.56457 0.72674 0.71311
 C3293 C 0.55638 0.71940 0.72231
 C3294 C 0.55741 0.70454 0.72324
 C3295 C 0.54825 0.69768 0.73245
 C3296 C 0.53908 0.70540 0.74074
 C3297 C 0.53883 0.72009 0.74014
 C3298 C 0.54730 0.72698 0.73076
 H3299 H 0.59407 0.71590 0.68599
 H3300 H 0.60004 0.66465 0.69291
 H3301 H 0.61134 0.70342 0.67353
 H3302 H 0.58155 0.66453 0.70962
 H3303 H 0.56415 0.67614 0.72304
 H3304 H 0.57995 0.72636 0.69815
 H3305 H 0.56366 0.73809 0.71228
 H3306 H 0.54794 0.68641 0.73354
 H3307 H 0.53247 0.69991 0.74789
 H3308 H 0.54690 0.73838 0.73016
 C3309 C 0.59664 0.17932 0.20558
 C3310 C 0.58848 0.19125 0.20198
 C3311 C 0.58963 0.19616 0.18873
 C3312 C 0.59947 0.18995 0.17985
 C3313 C 0.60794 0.17848 0.18382
 C3314 C 0.60619 0.17316 0.19669
 C3315 C 0.58094 0.20723 0.18446
 C3316 C 0.57123 0.21363 0.19308
 C3317 C 0.57015 0.20950 0.20652
 C3318 C 0.57922 0.19837 0.21111
 C3319 C 0.57920 0.19507 0.22478
 C3320 C 0.57055 0.20225 0.23368
 C3321 C 0.56135 0.21281 0.22935
 C3322 C 0.56069 0.21643 0.21569
 C3323 C 0.55063 0.22687 0.21189
 C3324 C 0.54208 0.23371 0.22136
 C3325 C 0.54338 0.23044 0.23484
 C3326 C 0.55291 0.21991 0.23874
 H3327 H 0.59571 0.17427 0.21511
 H3328 H 0.60042 0.19395 0.16981
 H3329 H 0.61233 0.16422 0.20008
 H3330 H 0.58163 0.21097 0.17430
 H3331 H 0.56505 0.22217 0.18901
 H3332 H 0.58621 0.18732 0.22908
 H3333 H 0.57113 0.19952 0.24412
 H3334 H 0.54905 0.22993 0.20170
 H3335 H 0.53467 0.24181 0.21820
 H3336 H 0.55377 0.21728 0.24920
 C3337 C 0.10052 0.71330 0.18258
 C3338 C 0.08996 0.70714 0.19080
 C3339 C 0.08924 0.69223 0.19116
 C3340 C 0.09927 0.68397 0.18422
 C3341 C 0.10991 0.69030 0.17648
 C3342 C 0.11024 0.70499 0.17553
 C3343 C 0.07858 0.68560 0.19852
 C3344 C 0.06856 0.69341 0.20557
 C3345 C 0.06904 0.70826 0.20588
 C3346 C 0.08017 0.71523 0.19868
 C3347 C 0.08149 0.72998 0.20000
 C3348 C 0.07241 0.73764 0.20821
 C3349 C 0.06137 0.73104 0.21509
 C3350 C 0.05916 0.71635 0.21364
 C3351 C 0.04720 0.71038 0.22016
 C3352 C 0.03856 0.71846 0.22855
 C3353 C 0.04150 0.73272 0.23070
 C3354 C 0.05270 0.73903 0.22366
 H3355 H 0.10149 0.72451 0.18124
 H3356 H 0.09869 0.67259 0.18475
 H3357 H 0.11827 0.71015 0.16951
 H3358 H 0.07799 0.67421 0.19886
 H3359 H 0.06086 0.68741 0.21115
 H3360 H 0.08985 0.73590 0.19525
 H3361 H 0.07411 0.74887 0.20924
 H3362 H 0.04422 0.69951 0.21900
 H3363 H 0.02985 0.71341 0.23378
 H3364 H 0.05482 0.75015 0.22505
 C3365 C 0.09033 0.20925 0.67750
 C3366 C 0.08229 0.20358 0.68813
 C3367 C 0.08419 0.18912 0.69111
 C3368 C 0.09453 0.18108 0.68435
 C3369 C 0.10295 0.18710 0.67433
 C3370 C 0.10046 0.20114 0.67077
 C3371 C 0.07588 0.18278 0.70092
 C3372 C 0.06587 0.19052 0.70808
 C3373 C 0.06407 0.20511 0.70598
 C3374 C 0.07255 0.21177 0.69594
 C3375 C 0.07146 0.22650 0.69437
 C3376 C 0.06251 0.23450 0.70235
 C3377 C 0.05413 0.22820 0.71210
 C3378 C 0.05447 0.21340 0.71391
 C3379 C 0.04531 0.20761 0.72374
 C3380 C 0.03678 0.21627 0.73176
 C3381 C 0.03713 0.23088 0.73024
 C3382 C 0.04562 0.23675 0.72026
 H3383 H 0.08905 0.21990 0.67405
 H3384 H 0.09606 0.17012 0.68695
 H3385 H 0.10656 0.20609 0.66294
 H3386 H 0.07718 0.17168 0.70315
 H3387 H 0.06001 0.18478 0.71551
 H3388 H 0.07780 0.23232 0.68736
 H3389 H 0.06228 0.24581 0.70095
 H3390 H 0.04452 0.19647 0.72554
 H3391 H 0.03020 0.21158 0.73942
 H3392 H 0.04572 0.24809 0.71899
 C3393 C 0.39870 0.72080 0.32126
 C3394 C 0.41072 0.71542 0.31431
 C3395 C 0.41283 0.70063 0.31436
 C3396 C 0.40274 0.69169 0.32028
 C3397 C 0.39062 0.69718 0.32660
 C3398 C 0.38889 0.71178 0.32736
 C3399 C 0.42488 0.69479 0.30837
 C3400 C 0.43490 0.70325 0.30212
 C3401 C 0.43304 0.71798 0.30124
 C3402 C 0.42061 0.72414 0.30723
 C3403 C 0.41819 0.73870 0.30546
 C3404 C 0.42734 0.74689 0.29785
 C3405 C 0.43951 0.74105 0.29201
 C3406 C 0.44285 0.72665 0.29403
 C3407 C 0.45577 0.72148 0.28850
 C3408 C 0.46433 0.72997 0.28048
 C3409 C 0.46042 0.74390 0.27775
 C3410 C 0.44819 0.74949 0.28387
 H3411 H 0.39658 0.73190 0.32225
 H3412 H 0.40436 0.68038 0.31999
 H3413 H 0.37969 0.71627 0.33236
 H3414 H 0.42657 0.68350 0.30844
 H3415 H 0.44375 0.69779 0.29759
 H3416 H 0.40893 0.74402 0.30939
 H3417 H 0.42478 0.75792 0.29640
 H3418 H 0.45955 0.71090 0.29009
 H3419 H 0.47379 0.72543 0.27596
 H3420 H 0.44527 0.76037 0.28206
 C3421 C 0.40273 0.20856 0.80936
 C3422 C 0.41188 0.20141 0.80041
 C3423 C 0.41160 0.18648 0.80043
 C3424 C 0.40184 0.17917 0.80851
 C3425 C 0.39264 0.18650 0.81708
 C3426 C 0.39334 0.20121 0.81752
 C3427 C 0.42107 0.17894 0.79240
 C3428 C 0.43093 0.18587 0.78441
 C3429 C 0.43138 0.20071 0.78378
 C3430 C 0.42133 0.20858 0.79155
 C3431 C 0.42069 0.22332 0.78989
 C3432 C 0.42965 0.23020 0.78107
 C3433 C 0.43983 0.22277 0.77378
 C3434 C 0.44116 0.20797 0.77527
 C3435 C 0.45223 0.20112 0.76810
 C3436 C 0.46095 0.20856 0.75929
 C3437 C 0.45891 0.22300 0.75733
 C3438 C 0.44852 0.23008 0.76481
 H3439 H 0.40275 0.21983 0.81051
 H3440 H 0.40158 0.16776 0.80831
 H3441 H 0.38643 0.20718 0.82409
 H3442 H 0.42093 0.16753 0.79235
 H3443 H 0.43775 0.17924 0.77844
 H3444 H 0.41295 0.22987 0.79487
 H3445 H 0.42855 0.24150 0.77992
 H3446 H 0.45447 0.19005 0.76914
 H3447 H 0.46905 0.20294 0.75369
 H3448 H 0.44713 0.24133 0.76351
 C3449 C 0.90216 0.68901 0.79094
 C3450 C 0.91207 0.69871 0.79617
 C3451 C 0.91040 0.70287 0.80962
 C3452 C 0.89951 0.69696 0.81756
 C3453 C 0.88996 0.68707 0.81221
 C3454 C 0.89141 0.68336 0.79879
 C3455 C 0.91951 0.71300 0.81499
 C3456 C 0.92999 0.71938 0.80722
 C3457 C 0.93203 0.71560 0.79376
 C3458 C 0.92327 0.70469 0.78834
 C3459 C 0.92598 0.70004 0.77524
 C3460 C 0.93609 0.70652 0.76732
 C3461 C 0.94401 0.71780 0.77210
 C3462 C 0.94240 0.72240 0.78545
 C3463 C 0.95097 0.73387 0.78969
 C3464 C 0.96019 0.74074 0.78085
 C3465 C 0.96116 0.73634 0.76763
 C3466 C 0.95331 0.72472 0.76341
 H3467 H 0.90210 0.68578 0.78068
 H3468 H 0.89845 0.70012 0.82786
 H3469 H 0.88409 0.67617 0.79405
 H3470 H 0.91837 0.71623 0.82527
 H3471 H 0.93641 0.72722 0.81210
 H3472 H 0.92052 0.69129 0.77075
 H3473 H 0.93757 0.70276 0.75724
 H3474 H 0.95049 0.73806 0.79963
 H3475 H 0.96618 0.74982 0.78420
 H3476 H 0.95411 0.72137 0.75312
 C3477 C 0.90508 0.18593 0.29556
 C3478 C 0.91332 0.19703 0.30099
 C3479 C 0.91206 0.19964 0.31481
 C3480 C 0.90227 0.19201 0.32256
 C3481 C 0.89377 0.18146 0.31688
 C3482 C 0.89550 0.17832 0.30339
 C3483 C 0.92051 0.20991 0.32082
 C3484 C 0.93014 0.21779 0.31342
 C3485 C 0.93144 0.21599 0.29955
 C3486 C 0.92269 0.20560 0.29320
 C3487 C 0.92324 0.20443 0.27924
 C3488 C 0.93200 0.21302 0.27169
 C3489 C 0.94077 0.22298 0.27771
 C3490 C 0.94089 0.22449 0.29172
 C3491 C 0.95044 0.23451 0.29724
 C3492 C 0.95904 0.24292 0.28910
 C3493 C 0.95835 0.24169 0.27527
 C3494 C 0.94933 0.23156 0.26968
 H3495 H 0.90583 0.18274 0.28531
 H3496 H 0.90132 0.19429 0.33307
 H3497 H 0.88923 0.17013 0.29873
 H3498 H 0.91967 0.21189 0.33140
 H3499 H 0.93616 0.22552 0.31886
 H3500 H 0.91667 0.19722 0.27371
 H3501 H 0.93185 0.21189 0.26097
 H3502 H 0.95160 0.23608 0.30778
 H3503 H 0.96605 0.25061 0.29362
 H3504 H 0.94903 0.23035 0.25897
 C3505 C 0.28892 0.31002 0.59305
 C3506 C 0.29595 0.30194 0.58318
 C3507 C 0.31110 0.30158 0.58338
 C3508 C 0.31874 0.30844 0.59354
 C3509 C 0.31152 0.31610 0.60339
 C3510 C 0.29659 0.31693 0.60293
 C3511 C 0.31855 0.29439 0.57346
 C3512 C 0.31133 0.28749 0.56332
 C3513 C 0.29624 0.28716 0.56289
 C3514 C 0.28844 0.29423 0.57318
 C3515 C 0.27341 0.29298 0.57341
 C3516 C 0.26622 0.28502 0.56403
 C3517 C 0.27362 0.27824 0.55386
 C3518 C 0.28868 0.27953 0.55284
 C3519 C 0.29549 0.27292 0.54187
 C3520 C 0.28774 0.26464 0.53292
 C3521 C 0.27305 0.26270 0.53464
 C3522 C 0.26600 0.26983 0.54489
 H3523 H 0.27751 0.31141 0.59337
 H3524 H 0.33031 0.30797 0.59366
 H3525 H 0.29069 0.32278 0.61037
 H3526 H 0.33013 0.29411 0.57352
 H3527 H 0.31792 0.28209 0.55616
 H3528 H 0.26682 0.29759 0.58104
 H3529 H 0.25470 0.28406 0.56483
 H3530 H 0.30677 0.27386 0.53996
 H3531 H 0.29333 0.25929 0.52495
 H3532 H 0.25455 0.26853 0.54607
 C3533 C 0.29305 0.81573 0.08765
 C3534 C 0.29939 0.80550 0.07925
 C3535 C 0.31382 0.80174 0.08175
 C3536 C 0.32140 0.80798 0.09229
 C3537 C 0.31488 0.81804 0.10051
 C3538 C 0.30066 0.82182 0.09803
 C3539 C 0.32057 0.79170 0.07380
 C3540 C 0.31326 0.78500 0.06359
 C3541 C 0.29879 0.78810 0.06088
 C3542 C 0.29182 0.79872 0.06870
 C3543 C 0.27744 0.80206 0.06584
 C3544 C 0.26987 0.79484 0.05622
 C3545 C 0.27628 0.78410 0.04893
 C3546 C 0.29091 0.78073 0.05084
 C3547 C 0.29682 0.76984 0.04283
 C3548 C 0.28830 0.76223 0.03393
 C3549 C 0.27376 0.76529 0.03276
 C3550 C 0.26792 0.77643 0.03999
 H3551 H 0.28215 0.81920 0.08665
 H3552 H 0.33242 0.80499 0.09405
 H3553 H 0.29518 0.82936 0.10429
 H3554 H 0.33163 0.78886 0.07558
 H3555 H 0.31927 0.77729 0.05806
 H3556 H 0.27154 0.81015 0.07096
 H3557 H 0.25874 0.79756 0.05461
 H3558 H 0.30787 0.76670 0.04339
 H3559 H 0.29294 0.75360 0.02834
 H3560 H 0.25662 0.77880 0.03896
 C3561 C 0.78928 0.31717 0.09005
 C3562 C 0.79520 0.30720 0.08114
 C3563 C 0.80978 0.30350 0.08284
 C3564 C 0.81789 0.30943 0.09320
 C3565 C 0.81174 0.31917 0.10200
 C3566 C 0.79740 0.32298 0.10023
 C3567 C 0.81616 0.29380 0.07426
 C3568 C 0.80835 0.28740 0.06419
 C3569 C 0.79371 0.29042 0.06230
 C3570 C 0.78708 0.30065 0.07080
 C3571 C 0.77248 0.30381 0.06886
 C3572 C 0.76442 0.29680 0.05944
 C3573 C 0.77054 0.28648 0.05144
 C3574 C 0.78533 0.28333 0.05242
 C3575 C 0.79093 0.27294 0.04368
 C3576 C 0.78202 0.26555 0.03495
 C3577 C 0.76735 0.26830 0.03470
 C3578 C 0.76176 0.27900 0.04268
 H3579 H 0.77836 0.32067 0.08960
 H3580 H 0.82901 0.30648 0.09437
 H3581 H 0.79222 0.33032 0.10691
 H3582 H 0.82733 0.29100 0.07543
 H3583 H 0.81411 0.27994 0.05815
 H3584 H 0.76675 0.31153 0.07462
 H3585 H 0.75316 0.29935 0.05856
 H3586 H 0.80206 0.27004 0.04350
 H3587 H 0.78649 0.25731 0.02876
 H3588 H 0.75039 0.28122 0.04233
 C3589 C 0.81678 0.79110 0.59039
 C3590 C 0.80665 0.79664 0.58136
 C3591 C 0.80273 0.81099 0.58284
 C3592 C 0.80844 0.81917 0.59322
 C3593 C 0.81822 0.81337 0.60223
 C3594 C 0.82241 0.79932 0.60059
 C3595 C 0.79301 0.81708 0.57405
 C3596 C 0.78688 0.80922 0.56390
 C3597 C 0.79011 0.79481 0.56219
 C3598 C 0.80015 0.78841 0.57108
 C3599 C 0.80309 0.77389 0.56963
 C3600 C 0.79615 0.76579 0.56020
 C3601 C 0.78619 0.77179 0.55166
 C3602 C 0.78329 0.78644 0.55217
 C3603 C 0.77346 0.79195 0.54276
 C3604 C 0.76622 0.78310 0.53392
 C3605 C 0.76856 0.76857 0.53419
 C3606 C 0.77881 0.76305 0.54281
 H3607 H 0.82060 0.78041 0.58997
 H3608 H 0.80528 0.83010 0.59424
 H3609 H 0.82989 0.79447 0.60739
 H3610 H 0.78999 0.82805 0.57511
 H3611 H 0.77935 0.81473 0.55772
 H3612 H 0.81050 0.76829 0.57585
 H3613 H 0.79850 0.75462 0.55971
 H3614 H 0.77098 0.80300 0.54208
 H3615 H 0.75837 0.78753 0.52721
 H3616 H 0.78075 0.75178 0.54285
 C3617 C 0.28163 0.67667 0.40583
 C3618 C 0.28691 0.68484 0.41653
 C3619 C 0.30186 0.68717 0.41710
 C3620 C 0.31087 0.68237 0.40685
 C3621 C 0.30533 0.67483 0.39608
 C3622 C 0.29072 0.67176 0.39584
 C3623 C 0.30776 0.69439 0.42783
 C3624 C 0.29914 0.69965 0.43793
 C3625 C 0.28412 0.69824 0.43753
 C3626 C 0.27789 0.69088 0.42655
 C3627 C 0.26283 0.69034 0.42564
 C3628 C 0.25416 0.69714 0.43483
 C3629 C 0.26007 0.70440 0.44552
 C3630 C 0.27509 0.70457 0.44738
 C3631 C 0.28040 0.71142 0.45887
 C3632 C 0.27128 0.71885 0.46737
 C3633 C 0.25663 0.71962 0.46477
 C3634 C 0.25102 0.71195 0.45410
 H3635 H 0.27055 0.67379 0.40492
 H3636 H 0.32225 0.68446 0.40729
 H3637 H 0.28618 0.66581 0.38769
 H3638 H 0.31919 0.69607 0.42840
 H3639 H 0.30458 0.70529 0.44570
 H3640 H 0.25735 0.68525 0.41757
 H3641 H 0.24268 0.69687 0.43344
 H3642 H 0.29156 0.71142 0.46148
 H3643 H 0.27581 0.72463 0.47563
 H3644 H 0.23962 0.71233 0.45221
 C3645 C 0.31334 0.21628 0.90633
 C3646 C 0.30556 0.21045 0.91706
 C3647 C 0.30491 0.19556 0.91798
 C3648 C 0.31108 0.18702 0.90807
 C3649 C 0.31848 0.19305 0.89742
 C3650 C 0.31968 0.20771 0.89675
 C3651 C 0.29812 0.18928 0.92878
 C3652 C 0.29192 0.19742 0.93873
 C3653 C 0.29187 0.21227 0.93807
 C3654 C 0.29848 0.21887 0.92686
 C3655 C 0.29738 0.23364 0.92558
 C3656 C 0.29008 0.24170 0.93487
 C3657 C 0.28381 0.23548 0.94594
 C3658 C 0.28496 0.22075 0.94797
 C3659 C 0.27894 0.21515 0.95976
 C3660 C 0.27127 0.22370 0.96857
 C3661 C 0.26938 0.23803 0.96595
 C3662 C 0.27601 0.24392 0.95481
 H3663 H 0.31494 0.22743 0.90514
 H3664 H 0.31035 0.17565 0.90877
 H3665 H 0.32537 0.21264 0.88863
 H3666 H 0.29764 0.17791 0.92960
 H3667 H 0.28679 0.19170 0.94663
 H3668 H 0.30159 0.23931 0.91720
 H3669 H 0.28923 0.25296 0.93328
 H3670 H 0.27988 0.20421 0.96243
 H3671 H 0.26629 0.21897 0.97720
 H3672 H 0.27477 0.25509 0.95288
 C3673 C 0.79351 0.68375 0.90931
 C3674 C 0.79979 0.69462 0.91694
 C3675 C 0.81425 0.69805 0.91426
 C3676 C 0.82171 0.69138 0.90384
 C3677 C 0.81507 0.68107 0.89601
 C3678 C 0.80102 0.67717 0.89906
 C3679 C 0.82115 0.70824 0.92189
 C3680 C 0.81398 0.71534 0.93198
 C3681 C 0.79940 0.71277 0.93469
 C3682 C 0.79217 0.70229 0.92697
 C3683 C 0.77744 0.70014 0.92921
 C3684 C 0.76993 0.70808 0.93843
 C3685 C 0.77676 0.71833 0.94597
 C3686 C 0.79165 0.72064 0.94453
 C3687 C 0.79801 0.73095 0.95286
 C3688 C 0.78975 0.73902 0.96166
 C3689 C 0.77496 0.73711 0.96237
 C3690 C 0.76861 0.72655 0.95474
 H3691 H 0.78280 0.68003 0.91095
 H3692 H 0.83268 0.69428 0.90181
 H3693 H 0.79555 0.66921 0.89333
 H3694 H 0.83224 0.71083 0.91997
 H3695 H 0.82010 0.72313 0.93726
 H3696 H 0.77117 0.69268 0.92369
 H3697 H 0.75855 0.70627 0.93955
 H3698 H 0.80930 0.73314 0.95276
 H3699 H 0.79485 0.74710 0.96757
 H3700 H 0.75716 0.72493 0.95545
 C3701 C 0.81585 0.20653 0.40845
 C3702 C 0.80546 0.20094 0.41720
 C3703 C 0.80152 0.18664 0.41545
 C3704 C 0.80779 0.17843 0.40532
 C3705 C 0.81809 0.18421 0.39681
 C3706 C 0.82200 0.19831 0.39852
 C3707 C 0.79127 0.18063 0.42375
 C3708 C 0.78473 0.18848 0.43372
 C3709 C 0.78822 0.20276 0.43585
 C3710 C 0.79876 0.20909 0.42743
 C3711 C 0.80213 0.22343 0.42941
 C3712 C 0.79507 0.23149 0.43881
 C3713 C 0.78458 0.22560 0.44685
 C3714 C 0.78126 0.21107 0.44586
 C3715 C 0.77094 0.20563 0.45484
 C3716 C 0.76362 0.21448 0.46368
 C3717 C 0.76640 0.22892 0.46383
 C3718 C 0.77715 0.23433 0.45569
 H3719 H 0.81945 0.21727 0.40887
 H3720 H 0.80469 0.16752 0.40413
 H3721 H 0.82969 0.20322 0.39198
 H3722 H 0.78816 0.16973 0.42244
 H3723 H 0.77674 0.18307 0.43947
 H3724 H 0.81006 0.22894 0.42369
 H3725 H 0.79779 0.24254 0.43973
 H3726 H 0.76815 0.19464 0.45519
 H3727 H 0.75541 0.21013 0.47006
 H3728 H 0.77944 0.24551 0.45602
 C3729 C 0.68223 0.29280 0.40990
 C3730 C 0.69277 0.29814 0.41862
 C3731 C 0.69648 0.31254 0.41740
 C3732 C 0.69033 0.32093 0.40741
 C3733 C 0.68031 0.31528 0.39857
 C3734 C 0.67617 0.30122 0.40008
 C3735 C 0.70644 0.31848 0.42602
 C3736 C 0.71305 0.31041 0.43573
 C3737 C 0.71011 0.29591 0.43710
 C3738 C 0.69985 0.28966 0.42834
 C3739 C 0.69734 0.27504 0.42930
 C3740 C 0.70486 0.26672 0.43816
 C3741 C 0.71493 0.27260 0.44665
 C3742 C 0.71743 0.28732 0.44661
 C3743 C 0.72736 0.29270 0.45598
 C3744 C 0.73498 0.28371 0.46440
 C3745 C 0.73298 0.26916 0.46370
 C3746 C 0.72273 0.26372 0.45503
 H3747 H 0.67838 0.28214 0.41031
 H3748 H 0.69341 0.33188 0.40653
 H3749 H 0.66845 0.29651 0.39346
 H3750 H 0.70927 0.32951 0.42517
 H3751 H 0.72075 0.31581 0.44180
 H3752 H 0.68990 0.26952 0.42305
 H3753 H 0.70284 0.25548 0.43826
 H3754 H 0.72954 0.30377 0.45703
 H3755 H 0.74280 0.28807 0.47117
 H3756 H 0.72101 0.25243 0.45469
 C3757 C 0.68413 0.78952 0.90770
 C3758 C 0.69376 0.79582 0.91675
 C3759 C 0.69592 0.81055 0.91576
 C3760 C 0.68942 0.81835 0.90552
 C3761 C 0.68038 0.81178 0.89633
 C3762 C 0.67759 0.79738 0.89772
 C3763 C 0.70466 0.81742 0.92490
 C3764 C 0.71146 0.80999 0.93497
 C3765 C 0.71013 0.79522 0.93608
 C3766 C 0.70135 0.78800 0.92665
 C3767 C 0.70087 0.77314 0.92708
 C3768 C 0.70885 0.76558 0.93622
 C3769 C 0.71735 0.77244 0.94553
 C3770 C 0.71777 0.78736 0.94594
 C3771 C 0.72605 0.79372 0.95608
 C3772 C 0.73436 0.78559 0.96470
 C3773 C 0.73467 0.77092 0.96353
 C3774 C 0.72582 0.76440 0.95418
 H3775 H 0.68131 0.77854 0.90808
 H3776 H 0.69136 0.82956 0.90474
 H3777 H 0.67056 0.79201 0.89087
 H3778 H 0.70630 0.82869 0.92425
 H3779 H 0.71814 0.81611 0.94147
 H3780 H 0.69485 0.76694 0.92012
 H3781 H 0.70846 0.75417 0.93590
 H3782 H 0.72645 0.80495 0.95755
 H3783 H 0.74108 0.79082 0.97193
 H3784 H 0.72585 0.75301 0.95341
 C3785 C 0.18021 0.28971 0.90994
 C3786 C 0.18864 0.29590 0.92003
 C3787 C 0.19008 0.31077 0.91996
 C3788 C 0.18402 0.31886 0.90970
 C3789 C 0.17612 0.31244 0.89957
 C3790 C 0.17409 0.29786 0.89994
 C3791 C 0.19765 0.31747 0.93006
 C3792 C 0.20407 0.30976 0.94016
 C3793 C 0.20349 0.29491 0.94038
 C3794 C 0.19579 0.28786 0.93005
 C3795 C 0.19595 0.27299 0.92976
 C3796 C 0.20364 0.26526 0.93898
 C3797 C 0.21123 0.27195 0.94905
 C3798 C 0.21089 0.28682 0.95024
 C3799 C 0.21829 0.29293 0.96109
 C3800 C 0.22657 0.28468 0.96964
 C3801 C 0.22769 0.27015 0.96768
 C3802 C 0.21962 0.26380 0.95766
 H3803 H 0.17803 0.27860 0.90946
 H3804 H 0.18541 0.33019 0.90964
 H3805 H 0.16801 0.29259 0.89228
 H3806 H 0.19870 0.32883 0.93013
 H3807 H 0.20986 0.31580 0.94743
 H3808 H 0.19069 0.26692 0.92218
 H3809 H 0.20381 0.25389 0.93809
 H3810 H 0.21808 0.30406 0.96315
 H3811 H 0.23267 0.28976 0.97742
 H3812 H 0.22029 0.25249 0.95628
 C3813 C 0.20901 0.80763 0.40436
 C3814 C 0.20190 0.79972 0.41424
 C3815 C 0.18673 0.79975 0.41418
 C3816 C 0.17915 0.80691 0.40416
 C3817 C 0.18647 0.81457 0.39442
 C3818 C 0.20141 0.81491 0.39470
 C3819 C 0.17924 0.79273 0.42414
 C3820 C 0.18645 0.78575 0.43427
 C3821 C 0.20153 0.78519 0.43462
 C3822 C 0.20935 0.79190 0.42417
 C3823 C 0.22434 0.79024 0.42376
 C3824 C 0.23150 0.78236 0.43320
 C3825 C 0.22411 0.77606 0.44360
 C3826 C 0.20908 0.77768 0.44475
 C3827 C 0.20230 0.77156 0.45594
 C3828 C 0.21002 0.76336 0.46497
 C3829 C 0.22465 0.76105 0.46313
 C3830 C 0.23169 0.76775 0.45266
 H3831 H 0.22045 0.80870 0.40393
 H3832 H 0.16756 0.80679 0.40412
 H3833 H 0.20735 0.82073 0.38730
 H3834 H 0.16765 0.79270 0.42417
 H3835 H 0.17984 0.78049 0.44148
 H3836 H 0.23090 0.79443 0.41592
 H3837 H 0.24298 0.78110 0.43227
 H3838 H 0.19106 0.77284 0.45794
 H3839 H 0.20445 0.75834 0.47313
 H3840 H 0.24309 0.76615 0.45137
 C3841 C 0.68314 0.70828 0.58865
 C3842 C 0.69363 0.70244 0.58010
 C3843 C 0.69719 0.68804 0.58184
 C3844 C 0.69092 0.68013 0.59211
 C3845 C 0.68090 0.68626 0.60073
 C3846 C 0.67697 0.70033 0.59875
 C3847 C 0.70712 0.68165 0.57341
 C3848 C 0.71382 0.68925 0.56341
 C3849 C 0.71102 0.70373 0.56153
 C3850 C 0.70079 0.71044 0.57007
 C3851 C 0.69837 0.72503 0.56857
 C3852 C 0.70590 0.73289 0.55937
 C3853 C 0.71599 0.72658 0.55112
 C3854 C 0.71846 0.71186 0.55173
 C3855 C 0.72850 0.70603 0.54265
 C3856 C 0.73627 0.71464 0.53398
 C3857 C 0.73427 0.72922 0.53413
 C3858 C 0.72389 0.73506 0.54246
 H3859 H 0.67942 0.71897 0.58789
 H3860 H 0.69388 0.66918 0.59338
 H3861 H 0.66928 0.70542 0.60519
 H3862 H 0.70983 0.67062 0.57463
 H3863 H 0.72147 0.68351 0.55751
 H3864 H 0.69098 0.73089 0.57463
 H3865 H 0.70392 0.74413 0.55883
 H3866 H 0.73071 0.69492 0.54206
 H3867 H 0.74421 0.70997 0.52748
 H3868 H 0.72222 0.74637 0.54240
 C3869 C 0.70978 0.18866 0.09320
 C3870 C 0.70275 0.19757 0.08408
 C3871 C 0.68820 0.20087 0.08653
 C3872 C 0.68082 0.19450 0.09716
 C3873 C 0.68784 0.18507 0.10570
 C3874 C 0.70246 0.18258 0.10376
 C3875 C 0.68116 0.21053 0.07839
 C3876 C 0.68829 0.21713 0.06797
 C3877 C 0.70270 0.21394 0.06497
 C3878 C 0.70982 0.20355 0.07285
 C3879 C 0.72371 0.19926 0.06913
 C3880 C 0.73089 0.20564 0.05875
 C3881 C 0.72459 0.21658 0.05166
 C3882 C 0.71032 0.22078 0.05443
 C3883 C 0.70453 0.23194 0.04675
 C3884 C 0.71284 0.23899 0.03730
 C3885 C 0.72705 0.23506 0.03515
 C3886 C 0.73272 0.22362 0.04207
 H3887 H 0.72106 0.18643 0.09268
 H3888 H 0.66959 0.19681 0.09866
 H3889 H 0.70847 0.17596 0.11047
 H3890 H 0.67007 0.21321 0.08021
 H3891 H 0.68211 0.22456 0.06228
 H3892 H 0.72929 0.19075 0.07395
 H3893 H 0.74163 0.20212 0.05639
 H3894 H 0.69382 0.23584 0.04817
 H3895 H 0.70837 0.24793 0.03207
 H3896 H 0.74378 0.22063 0.04038
 C3897 C 0.21099 0.68077 0.08631
 C3898 C 0.20537 0.69158 0.07818
 C3899 C 0.19091 0.69557 0.08022
 C3900 C 0.18278 0.68938 0.09043
 C3901 C 0.18873 0.67903 0.09866
 C3902 C 0.20281 0.67466 0.09632
 C3903 C 0.18469 0.70583 0.07218
 C3904 C 0.19255 0.71246 0.06228
 C3905 C 0.20711 0.70924 0.06013
 C3906 C 0.21364 0.69866 0.06826
 C3907 C 0.22833 0.69578 0.06649
 C3908 C 0.23649 0.70319 0.05741
 C3909 C 0.23036 0.71361 0.04954
 C3910 C 0.21553 0.71657 0.05044
 C3911 C 0.20989 0.72694 0.04174
 C3912 C 0.21879 0.73449 0.03314
 C3913 C 0.23350 0.73195 0.03298
 C3914 C 0.23915 0.72132 0.04098
 H3915 H 0.22168 0.67673 0.08529
 H3916 H 0.17180 0.69266 0.09195
 H3917 H 0.20777 0.66669 0.10245
 H3918 H 0.17363 0.70887 0.07363
 H3919 H 0.18694 0.72038 0.05669
 H3920 H 0.23407 0.68810 0.07225
 H3921 H 0.24780 0.70083 0.05665
 H3922 H 0.19869 0.72958 0.04141
 H3923 H 0.21426 0.74267 0.02695
 H3924 H 0.25057 0.71927 0.04070
 C3925 C 0.18904 0.20442 0.58819
 C3926 C 0.19941 0.19789 0.58001
 C3927 C 0.20322 0.18376 0.58293
 C3928 C 0.19652 0.17649 0.59343
 C3929 C 0.18601 0.18311 0.60121
 C3930 C 0.18249 0.19714 0.59850
 C3931 C 0.21374 0.17702 0.57540
 C3932 C 0.22077 0.18403 0.56518
 C3933 C 0.21741 0.19812 0.56191
 C3934 C 0.20629 0.20502 0.56926
 C3935 C 0.20238 0.21885 0.56561
 C3936 C 0.20957 0.22604 0.55572
 C3937 C 0.22089 0.21977 0.54895
 C3938 C 0.22488 0.20565 0.55169
 C3939 C 0.23645 0.19990 0.54429
 C3940 C 0.24407 0.20812 0.53517
 C3941 C 0.24033 0.22218 0.53308
 C3942 C 0.22853 0.22781 0.53972
 H3943 H 0.18587 0.21525 0.58713
 H3944 H 0.19938 0.16564 0.59544
 H3945 H 0.17476 0.20274 0.60452
 H3946 H 0.21670 0.16621 0.57754
 H3947 H 0.22883 0.17806 0.55998
 H3948 H 0.19373 0.22454 0.57020
 H3949 H 0.20636 0.23675 0.55349
 H3950 H 0.24017 0.18926 0.54562
 H3951 H 0.25329 0.20366 0.53017
 H3952 H 0.22570 0.23876 0.53811
   
