data_POSCAR
  _audit_creation_date              2014-09-24
  _audit_creation_method            'ToBaCCo'
  _symmetry_space_group_name_H-M    'P1'
  _symmetry_Int_Tables_number       1
  _symmetry_cell_setting            triclinic
  loop_
  _symmetry_equiv_pos_as_xyz
 x,y,z
_cell_length_a 50.9424
_cell_length_b 50.8932
_cell_length_c 50.8625
_cell_angle_alpha 90.027700
_cell_angle_beta 89.966900
_cell_angle_gamma 89.969100
loop_
  _atom_site_label
  _atom_site_type_symbol
  _atom_site_fract_x
  _atom_site_fract_y
  _atom_site_fract_z
O1 O 0.87549 0.16087 0.80630
 O2 O 0.90465 0.12655 0.79919
 O3 O 0.80720 0.12358 0.83878
 O4 O 0.79737 0.09829 0.87326
 O5 O 0.83928 0.19319 0.87562
 O6 O 0.87572 0.20065 0.90394
 O7 O 0.87650 0.05596 0.91003
 O8 O 0.84611 0.04944 0.87701
 O9 O 0.94345 0.08857 0.87579
 O10 O 0.95191 0.12576 0.84632
 O11 O 0.91157 0.12359 0.94284
 O12 O 0.87454 0.15244 0.95171
 O13 O 0.87656 0.08751 0.94187
 O14 O 0.84589 0.12548 0.95020
 O15 O 0.94324 0.12397 0.91128
 O16 O 0.95075 0.15451 0.87333
 O17 O 0.91198 0.05686 0.87632
 O18 O 0.87748 0.05268 0.84181
 O19 O 0.87618 0.19250 0.83812
 O20 O 0.90502 0.20010 0.87512
 O21 O 0.80760 0.16163 0.87559
 O22 O 0.80183 0.12408 0.90619
 O23 O 0.83866 0.12456 0.80694
 O24 O 0.87529 0.09281 0.80193
 Zr25 Zr 0.87440 0.12559 0.82776
 O26 O 0.89931 0.10136 0.85021
 Zr27 Zr 0.82839 0.12584 0.87421
 O28 O 0.85105 0.10086 0.89815
 Zr29 Zr 0.87464 0.17182 0.87402
 O30 O 0.89903 0.14924 0.89867
 Zr31 Zr 0.87640 0.07785 0.87510
 O32 O 0.85112 0.10026 0.85083
 Zr33 Zr 0.92239 0.12419 0.87560
 O34 O 0.89985 0.14875 0.85079
 Zr35 Zr 0.87611 0.12369 0.92166
 O36 O 0.85147 0.14897 0.89955
 O37 O 0.85014 0.15010 0.84974
 O38 O 0.90083 0.09940 0.89994
 C39 C 0.87648 0.18489 0.81401
 C40 C 0.81470 0.12340 0.81467
 C41 C 0.81524 0.18566 0.87630
 C42 C 0.87664 0.06348 0.93412
 C43 C 0.93598 0.06449 0.87624
 C44 C 0.93561 0.12371 0.93531
 H45 H 0.91014 0.09044 0.83831
 H46 H 0.90975 0.16115 0.90964
 H47 H 0.83887 0.16132 0.83855
 H48 H 0.83929 0.08965 0.90877
 H49 H 0.83401 0.05324 0.86225
 H50 H 0.80453 0.08154 0.88000
 H51 H 0.94773 0.16663 0.88823
 H52 H 0.91863 0.19408 0.86259
 H53 H 0.88126 0.03461 0.84805
 H54 H 0.86985 0.09865 0.78413
 H55 H 0.88723 0.16641 0.94712
 H56 H 0.86417 0.19422 0.91821
 H57 H 0.91891 0.13753 0.80651
 H58 H 0.94775 0.11229 0.83294
 H59 H 0.80672 0.13838 0.91844
 H60 H 0.83403 0.11038 0.94726
 O61 O 0.83886 0.69335 0.37483
 O62 O 0.87312 0.70055 0.40404
 O63 O 0.87631 0.66069 0.30656
 O64 O 0.90158 0.62620 0.29679
 O65 O 0.80675 0.62394 0.33877
 O66 O 0.79928 0.59575 0.37536
 O67 O 0.94385 0.58973 0.37619
 O68 O 0.95033 0.62261 0.34559
 O69 O 0.91113 0.62426 0.44309
 O70 O 0.87387 0.65365 0.45145
 O71 O 0.87630 0.55705 0.41140
 O72 O 0.84754 0.54802 0.37437
 O73 O 0.91237 0.55790 0.37633
 O74 O 0.87447 0.54947 0.34563
 O75 O 0.87587 0.58870 0.44301
 O76 O 0.84527 0.62657 0.45043
 O77 O 0.94285 0.62364 0.41155
 O78 O 0.94701 0.65792 0.37684
 O79 O 0.80732 0.66154 0.37565
 O80 O 0.79975 0.62462 0.40461
 O81 O 0.83832 0.62390 0.30706
 O82 O 0.87586 0.59330 0.30138
 O83 O 0.87520 0.69260 0.33797
 O84 O 0.90683 0.69777 0.37463
 Zr85 Zr 0.87415 0.67192 0.37381
 O86 O 0.89837 0.64958 0.39881
 Zr87 Zr 0.87404 0.62535 0.32788
 O88 O 0.89900 0.60150 0.35064
 Zr89 Zr 0.82803 0.62566 0.37419
 O90 O 0.85061 0.60111 0.39870
 Zr91 Zr 0.92192 0.62464 0.37593
 O92 O 0.89952 0.64881 0.35056
 Zr93 Zr 0.87557 0.62428 0.42201
 O94 O 0.85100 0.64898 0.39937
 Zr95 Zr 0.87620 0.57808 0.37581
 O96 O 0.85094 0.60009 0.35107
 O97 O 0.84973 0.64986 0.34958
 O98 O 0.90041 0.59989 0.40049
 C99 C 0.81488 0.68563 0.37587
 C100 C 0.87644 0.68480 0.31400
 C101 C 0.81432 0.62319 0.31471
 C102 C 0.93637 0.56565 0.37640
 C103 C 0.93517 0.62384 0.43557
 C104 C 0.87617 0.56467 0.43544
 H105 H 0.90924 0.66152 0.40960
 H106 H 0.83873 0.59018 0.40947
 H107 H 0.83851 0.66101 0.33826
 H108 H 0.91023 0.59085 0.33889
 H109 H 0.94652 0.63730 0.33341
 H110 H 0.91831 0.61948 0.30396
 H111 H 0.83317 0.61167 0.44743
 H112 H 0.80573 0.63717 0.41822
 H113 H 0.96507 0.65172 0.38064
 H114 H 0.90097 0.71554 0.36914
 H115 H 0.83355 0.55265 0.38704
 H116 H 0.80574 0.58145 0.36384
 H117 H 0.86206 0.69330 0.41831
 H118 H 0.88730 0.66703 0.44725
 H119 H 0.86158 0.58107 0.30632
 H120 H 0.88958 0.55235 0.33375
 O121 O 0.37457 0.16028 0.30680
 O122 O 0.40381 0.12587 0.29990
 O123 O 0.30641 0.12308 0.33966
 O124 O 0.29670 0.09795 0.37430
 O125 O 0.33853 0.19291 0.37605
 O126 O 0.37500 0.20061 0.40420
 O127 O 0.37584 0.05594 0.41131
 O128 O 0.34536 0.04924 0.37836
 O129 O 0.44270 0.08842 0.37650
 O130 O 0.45110 0.12540 0.34690
 O131 O 0.41103 0.12377 0.44352
 O132 O 0.37398 0.15272 0.45228
 O133 O 0.37595 0.08769 0.44292
 O134 O 0.34536 0.12573 0.45107
 O135 O 0.44260 0.12398 0.41185
 O136 O 0.44997 0.15432 0.37373
 O137 O 0.41124 0.05668 0.37739
 O138 O 0.37666 0.05221 0.34309
 O139 O 0.37532 0.19208 0.33845
 O140 O 0.40428 0.19986 0.37535
 O141 O 0.30688 0.16133 0.37625
 O142 O 0.30114 0.12404 0.40706
 O143 O 0.33780 0.12391 0.30775
 O144 O 0.37443 0.09218 0.30284
 Zr145 Zr 0.37357 0.12509 0.32849
 O146 O 0.39849 0.10100 0.35107
 Zr147 Zr 0.32767 0.12556 0.37504
 O148 O 0.35037 0.10077 0.39914
 Zr149 Zr 0.37390 0.17159 0.37448
 O150 O 0.39834 0.14917 0.39924
 Zr151 Zr 0.37566 0.07762 0.37619
 O152 O 0.35037 0.09987 0.35178
 Zr153 Zr 0.42164 0.12400 0.37624
 O154 O 0.39906 0.14841 0.35132
 Zr155 Zr 0.37549 0.12375 0.42245
 O156 O 0.35080 0.14886 0.40019
 O157 O 0.34935 0.14971 0.35038
 O158 O 0.40017 0.09933 0.40081
 C159 C 0.37556 0.18436 0.31437
 C160 C 0.31385 0.12277 0.31554
 C161 C 0.31451 0.18535 0.37681
 C162 C 0.37600 0.06359 0.43537
 C163 C 0.43521 0.06436 0.37712
 C164 C 0.43504 0.12385 0.43590
 H165 H 0.40929 0.09001 0.33922
 H166 H 0.40908 0.16115 0.41010
 H167 H 0.33805 0.16085 0.33915
 H168 H 0.33863 0.08962 0.40986
 H169 H 0.33324 0.05295 0.36361
 H170 H 0.30381 0.08131 0.38134
 H171 H 0.44699 0.16652 0.38858
 H172 H 0.41783 0.19381 0.36278
 H173 H 0.38043 0.03418 0.34945
 H174 H 0.36898 0.09792 0.28502
 H175 H 0.38674 0.16660 0.44764
 H176 H 0.36356 0.19422 0.41857
 H177 H 0.41799 0.13707 0.30705
 H178 H 0.44683 0.11196 0.33353
 H179 H 0.30611 0.13836 0.41926
 H180 H 0.33344 0.11067 0.44821
 O181 O 0.12486 0.33911 0.30635
 O182 O 0.09568 0.37355 0.29944
 O183 O 0.19319 0.37623 0.33886
 O184 O 0.20314 0.40138 0.37339
 O185 O 0.16090 0.30664 0.37563
 O186 O 0.12441 0.29920 0.40388
 O187 O 0.12418 0.44390 0.41045
 O188 O 0.15463 0.45035 0.37740
 O189 O 0.05714 0.41156 0.37605
 O190 O 0.04852 0.37446 0.34661
 O191 O 0.08889 0.37633 0.44306
 O192 O 0.12582 0.34732 0.45180
 O193 O 0.12403 0.41228 0.44219
 O194 O 0.15457 0.37418 0.45034
 O195 O 0.05722 0.37613 0.41153
 O196 O 0.04959 0.34567 0.37354
 O197 O 0.08873 0.44317 0.37667
 O198 O 0.12326 0.44732 0.34222
 O199 O 0.12407 0.30745 0.33811
 O200 O 0.09512 0.29994 0.37510
 O201 O 0.19267 0.33810 0.37559
 O202 O 0.19861 0.37554 0.40625
 O203 O 0.16172 0.37539 0.30706
 O204 O 0.12517 0.40717 0.30214
 Zr205 Zr 0.12600 0.37438 0.32792
 O206 O 0.10122 0.39867 0.35049
 Zr207 Zr 0.17202 0.37394 0.37431
 O208 O 0.14948 0.39894 0.39838
 Zr209 Zr 0.12561 0.32809 0.37406
 O210 O 0.10133 0.35071 0.39882
 Zr211 Zr 0.12422 0.42207 0.37543
 O212 O 0.14937 0.39961 0.35103
 Zr213 Zr 0.07806 0.37588 0.37583
 O214 O 0.10048 0.35127 0.35092
 Zr215 Zr 0.12434 0.37614 0.42185
 O216 O 0.14887 0.35083 0.39961
 O217 O 0.15019 0.34977 0.34981
 O218 O 0.09970 0.40056 0.40022
 C219 C 0.12383 0.31507 0.31401
 C220 C 0.18568 0.37649 0.31477
 C221 C 0.18494 0.31411 0.37629
 C222 C 0.12403 0.43634 0.43453
 C223 C 0.06473 0.43560 0.37654
 C224 C 0.06486 0.37632 0.43554
 H225 H 0.09044 0.40965 0.33863
 H226 H 0.09057 0.33883 0.40976
 H227 H 0.16144 0.33854 0.33858
 H228 H 0.16129 0.41009 0.40902
 H229 H 0.16671 0.44654 0.36261
 H230 H 0.19608 0.41812 0.38026
 H231 H 0.05259 0.33350 0.38839
 H232 H 0.08157 0.30600 0.36255
 H233 H 0.11957 0.46540 0.34852
 H234 H 0.13055 0.40132 0.28432
 H235 H 0.11304 0.33344 0.44723
 H236 H 0.13593 0.30558 0.41819
 H237 H 0.08148 0.36244 0.30669
 H238 H 0.05280 0.38783 0.33317
 H239 H 0.19365 0.36126 0.41849
 H240 H 0.16648 0.38924 0.44744
 O241 O 0.62479 0.83878 0.30622
 O242 O 0.59557 0.87312 0.29921
 O243 O 0.69303 0.87609 0.33868
 O244 O 0.70279 0.90147 0.37316
 O245 O 0.66096 0.80651 0.37549
 O246 O 0.62456 0.79894 0.40378
 O247 O 0.62368 0.94365 0.41017
 O248 O 0.65409 0.95019 0.37712
 O249 O 0.55677 0.91096 0.37591
 O250 O 0.54828 0.87385 0.34647
 O251 O 0.58863 0.87600 0.44291
 O252 O 0.62573 0.84711 0.45165
 O253 O 0.62364 0.91209 0.44197
 O254 O 0.65432 0.87413 0.45021
 O255 O 0.55697 0.87559 0.41138
 O256 O 0.54956 0.84500 0.37335
 O257 O 0.58823 0.94271 0.37648
 O258 O 0.62270 0.94698 0.34197
 O259 O 0.62411 0.80715 0.33800
 O260 O 0.59522 0.79955 0.37503
 O261 O 0.69262 0.83809 0.37546
 O262 O 0.69842 0.87558 0.40607
 O263 O 0.66158 0.87511 0.30688
 O264 O 0.62491 0.90687 0.30197
 Zr265 Zr 0.62583 0.87407 0.32774
 O266 O 0.60091 0.89824 0.35029
 Zr267 Zr 0.67183 0.87385 0.37414
 O268 O 0.64916 0.89877 0.39818
 Zr269 Zr 0.62560 0.82782 0.37394
 O270 O 0.60121 0.85035 0.39869
 Zr271 Zr 0.62381 0.92177 0.37519
 O272 O 0.64909 0.89941 0.35082
 Zr273 Zr 0.57784 0.87538 0.37567
 O274 O 0.60039 0.85087 0.35076
 Zr275 Zr 0.62411 0.87591 0.42169
 O276 O 0.64876 0.85069 0.39947
 O277 O 0.65010 0.84957 0.34966
 O278 O 0.59938 0.90019 0.40002
 C279 C 0.62383 0.81475 0.31390
 C280 C 0.68555 0.87626 0.31458
 C281 C 0.68498 0.81407 0.37614
 C282 C 0.62354 0.93613 0.43425
 C283 C 0.56426 0.93502 0.37639
 C284 C 0.56460 0.87587 0.43540
 H285 H 0.59008 0.90917 0.33843
 H286 H 0.59050 0.83843 0.40965
 H287 H 0.66137 0.83836 0.33845
 H288 H 0.66092 0.90999 0.40881
 H289 H 0.66618 0.94641 0.36233
 H290 H 0.69567 0.91815 0.38009
 H291 H 0.55251 0.83294 0.38831
 H292 H 0.58165 0.80552 0.36246
 H293 H 0.61893 0.96505 0.34825
 H294 H 0.63037 0.90105 0.28417
 H295 H 0.61296 0.83320 0.44713
 H296 H 0.63602 0.80541 0.41809
 H297 H 0.58135 0.86206 0.30650
 H298 H 0.55252 0.88721 0.33301
 H299 H 0.69348 0.86132 0.41835
 H300 H 0.66619 0.88922 0.44726
 O301 O 0.62518 0.66047 0.19318
 O302 O 0.59595 0.62620 0.20023
 O303 O 0.69339 0.62299 0.16060
 O304 O 0.70315 0.59766 0.12610
 O305 O 0.66142 0.69268 0.12386
 O306 O 0.62499 0.70030 0.09561
 O307 O 0.62393 0.55560 0.08924
 O308 O 0.65436 0.54898 0.12222
 O309 O 0.55708 0.58841 0.12366
 O310 O 0.54869 0.62560 0.15311
 O311 O 0.58897 0.62337 0.05658
 O312 O 0.62606 0.65209 0.04773
 O313 O 0.62392 0.58716 0.05746
 O314 O 0.65466 0.62505 0.04918
 O315 O 0.55733 0.62381 0.08816
 O316 O 0.54991 0.65436 0.12616
 O317 O 0.58850 0.55659 0.12305
 O318 O 0.62304 0.55228 0.15746
 O319 O 0.62453 0.69211 0.16140
 O320 O 0.59569 0.69979 0.12441
 O321 O 0.69303 0.66103 0.12383
 O322 O 0.69874 0.62351 0.09320
 O323 O 0.66195 0.62405 0.19245
 O324 O 0.62527 0.59240 0.19744
 Zr325 Zr 0.62620 0.62519 0.17166
 O326 O 0.60126 0.60104 0.14917
 Zr327 Zr 0.67219 0.62531 0.12518
 O328 O 0.64948 0.60042 0.10120
 Zr329 Zr 0.62602 0.67144 0.12546
 O330 O 0.60159 0.64895 0.10078
 Zr331 Zr 0.62411 0.57747 0.12422
 O332 O 0.64942 0.59980 0.14853
 Zr333 Zr 0.57820 0.62395 0.12383
 O334 O 0.60078 0.64844 0.14868
 Zr335 Zr 0.62445 0.62333 0.07773
 O336 O 0.64913 0.64852 0.09989
 O337 O 0.65050 0.64964 0.14970
 O338 O 0.59969 0.59910 0.09944
 C339 C 0.62422 0.68450 0.18550
 C340 C 0.68590 0.62283 0.18471
 C341 C 0.68543 0.68508 0.12315
 C342 C 0.62379 0.56310 0.06515
 C343 C 0.56453 0.56432 0.12319
 C344 C 0.56495 0.62355 0.06413
 H345 H 0.59042 0.59015 0.16106
 H346 H 0.59089 0.66089 0.08983
 H347 H 0.66179 0.66082 0.16090
 H348 H 0.66122 0.58918 0.09055
 H349 H 0.66647 0.55274 0.13697
 H350 H 0.69599 0.58096 0.11925
 H351 H 0.55294 0.66647 0.11126
 H352 H 0.58208 0.69383 0.13696
 H353 H 0.61923 0.53422 0.15120
 H354 H 0.63072 0.59822 0.21524
 H355 H 0.61340 0.66610 0.05234
 H356 H 0.63650 0.69383 0.08130
 H357 H 0.58174 0.63729 0.19296
 H358 H 0.55287 0.61217 0.16652
 H359 H 0.69384 0.63780 0.08095
 H360 H 0.66649 0.60991 0.05208
 O361 O 0.37472 0.83990 0.69371
 O362 O 0.40402 0.87422 0.70058
 O363 O 0.30649 0.87729 0.66126
 O364 O 0.29671 0.90259 0.62676
 O365 O 0.33844 0.80754 0.62450
 O366 O 0.37484 0.79986 0.59619
 O367 O 0.37582 0.94455 0.58951
 O368 O 0.34543 0.95122 0.62257
 O369 O 0.44274 0.91185 0.62392
 O370 O 0.45120 0.87475 0.65332
 O371 O 0.41078 0.87670 0.55691
 O372 O 0.37364 0.84788 0.54826
 O373 O 0.37577 0.91288 0.55779
 O374 O 0.34509 0.87497 0.54967
 O375 O 0.44247 0.87636 0.58841
 O376 O 0.44992 0.84589 0.62645
 O377 O 0.41131 0.94365 0.62331
 O378 O 0.37680 0.94806 0.65774
 O379 O 0.37533 0.80819 0.66197
 O380 O 0.40419 0.80046 0.62494
 O381 O 0.30681 0.83918 0.62452
 O382 O 0.30101 0.87660 0.59387
 O383 O 0.33798 0.87634 0.69303
 O384 O 0.37466 0.90800 0.69785
 Zr385 Zr 0.37369 0.87515 0.67212
 O386 O 0.39858 0.89925 0.64950
 Zr387 Zr 0.32764 0.87491 0.62578
 O388 O 0.35031 0.89973 0.60166
 Zr389 Zr 0.37383 0.82879 0.62600
 O390 O 0.39822 0.85123 0.60119
 Zr391 Zr 0.37570 0.92277 0.62456
 O392 O 0.35045 0.90049 0.64901
 Zr393 Zr 0.42163 0.87629 0.62414
 O394 O 0.39910 0.85186 0.64910
 Zr395 Zr 0.37532 0.87677 0.57816
 O396 O 0.35067 0.85165 0.60045
 O397 O 0.34938 0.85065 0.65027
 O398 O 0.40010 0.90108 0.59975
 C399 C 0.37565 0.81584 0.68607
 C400 C 0.31400 0.87752 0.68536
 C401 C 0.31442 0.81514 0.62384
 C402 C 0.37590 0.93696 0.56543
 C403 C 0.43528 0.93593 0.62346
 C404 C 0.43482 0.87655 0.56439
 H405 H 0.40943 0.91018 0.66134
 H406 H 0.40891 0.83927 0.59025
 H407 H 0.33810 0.83949 0.66151
 H408 H 0.33855 0.91094 0.59102
 H409 H 0.33334 0.94750 0.63736
 H410 H 0.30382 0.91923 0.61973
 H411 H 0.44689 0.83375 0.61156
 H412 H 0.41779 0.80646 0.63747
 H413 H 0.38056 0.96611 0.65143
 H414 H 0.36926 0.90222 0.71568
 H415 H 0.38641 0.83396 0.55280
 H416 H 0.36334 0.80630 0.58189
 H417 H 0.41817 0.86303 0.69333
 H418 H 0.44695 0.88811 0.66680
 H419 H 0.30594 0.86232 0.58161
 H420 H 0.33320 0.89005 0.55263
 O421 O 0.87534 0.33914 0.69357
 O422 O 0.90451 0.37346 0.70059
 O423 O 0.80703 0.37649 0.66118
 O424 O 0.79712 0.40171 0.62671
 O425 O 0.83912 0.30683 0.62430
 O426 O 0.87555 0.29932 0.59595
 O427 O 0.87617 0.44402 0.58978
 O428 O 0.84581 0.45056 0.62287
 O429 O 0.94319 0.41138 0.62397
 O430 O 0.95170 0.37420 0.65338
 O431 O 0.91127 0.37639 0.55695
 O432 O 0.87430 0.34754 0.54813
 O433 O 0.87621 0.41245 0.55796
 O434 O 0.84557 0.37445 0.54972
 O435 O 0.94297 0.37601 0.58844
 O436 O 0.95054 0.34546 0.62637
 O437 O 0.91169 0.44312 0.62346
 O438 O 0.87720 0.44733 0.65800
 O439 O 0.87604 0.30751 0.66175
 O440 O 0.90486 0.29990 0.62470
 O441 O 0.80743 0.33840 0.62440
 O442 O 0.80159 0.37593 0.59380
 O443 O 0.83851 0.37549 0.69296
 O444 O 0.87513 0.40720 0.69792
 Zr445 Zr 0.87423 0.37442 0.67209
 O446 O 0.89908 0.39863 0.64958
 Zr447 Zr 0.82818 0.37418 0.62573
 O448 O 0.85079 0.39914 0.60173
 Zr449 Zr 0.87446 0.32817 0.62585
 O450 O 0.89880 0.35073 0.60113
 Zr451 Zr 0.87613 0.42215 0.62473
 O452 O 0.85090 0.39975 0.64906
 Zr453 Zr 0.92216 0.37578 0.62416
 O454 O 0.89967 0.35123 0.64903
 Zr455 Zr 0.87584 0.37628 0.57818
 O456 O 0.85125 0.35102 0.60036
 O457 O 0.84996 0.34991 0.65017
 O458 O 0.90056 0.40058 0.59985
 C459 C 0.87634 0.31512 0.68586
 C460 C 0.81455 0.37668 0.68527
 C461 C 0.81509 0.31438 0.62366
 C462 C 0.87627 0.43649 0.56570
 C463 C 0.93567 0.43545 0.62353
 C464 C 0.93530 0.37628 0.56444
 H465 H 0.90991 0.40955 0.66146
 H466 H 0.90952 0.33883 0.59015
 H467 H 0.83871 0.33870 0.66138
 H468 H 0.83900 0.41035 0.59113
 H469 H 0.83373 0.44677 0.63764
 H470 H 0.80425 0.41847 0.61999
 H471 H 0.94752 0.33334 0.61147
 H472 H 0.91847 0.30590 0.63722
 H473 H 0.88096 0.46540 0.65175
 H474 H 0.86971 0.40136 0.71573
 H475 H 0.88699 0.33356 0.55271
 H476 H 0.86401 0.30576 0.58168
 H477 H 0.91875 0.36241 0.69327
 H478 H 0.94752 0.38764 0.66679
 H479 H 0.80647 0.36161 0.58155
 H480 H 0.83372 0.38957 0.55265
 O481 O 0.80660 0.87473 0.16046
 O482 O 0.79965 0.90388 0.12601
 O483 O 0.83915 0.80630 0.12326
 O484 O 0.87360 0.79640 0.09800
 O485 O 0.87580 0.83859 0.19288
 O486 O 0.90397 0.87508 0.20040
 O487 O 0.91055 0.87545 0.05559
 O488 O 0.87759 0.84495 0.04910
 O489 O 0.87613 0.94252 0.08807
 O490 O 0.84675 0.95114 0.12522
 O491 O 0.94309 0.91073 0.12321
 O492 O 0.95186 0.87376 0.15219
 O493 O 0.94224 0.87557 0.08720
 O494 O 0.95040 0.84496 0.12531
 O495 O 0.91158 0.94243 0.12347
 O496 O 0.87364 0.95002 0.15403
 O497 O 0.87678 0.91091 0.05639
 O498 O 0.84243 0.87636 0.05218
 O499 O 0.83830 0.87552 0.19214
 O500 O 0.87524 0.90444 0.19969
 O501 O 0.87582 0.80682 0.16135
 O502 O 0.90643 0.80089 0.12389
 O503 O 0.80736 0.83778 0.12415
 O504 O 0.80243 0.87438 0.09234
 Zr505 Zr 0.82814 0.87356 0.12517
 O506 O 0.85066 0.89838 0.10091
 Zr507 Zr 0.87452 0.82751 0.12553
 O508 O 0.89853 0.85009 0.10055
 Zr509 Zr 0.87421 0.87393 0.17148
 O510 O 0.89892 0.89825 0.14888
 Zr511 Zr 0.87558 0.87538 0.07744
 O512 O 0.85124 0.85019 0.09988
 Zr513 Zr 0.87595 0.92156 0.12374
 O514 O 0.85108 0.89910 0.14832
 Zr515 Zr 0.92194 0.87524 0.12338
 O516 O 0.89975 0.85068 0.14867
 O517 O 0.85002 0.84934 0.14975
 O518 O 0.90031 0.89991 0.09900
 C519 C 0.81423 0.87579 0.18452
 C520 C 0.81508 0.81379 0.12303
 C521 C 0.87650 0.81453 0.18536
 C522 C 0.93460 0.87560 0.06312
 C523 C 0.87662 0.93493 0.06402
 C524 C 0.93557 0.93478 0.12325
 H525 H 0.83881 0.90918 0.08994
 H526 H 0.90985 0.90902 0.16078
 H527 H 0.83882 0.83809 0.16098
 H528 H 0.90916 0.83828 0.08936
 H529 H 0.86283 0.83287 0.05290
 H530 H 0.88052 0.80346 0.08128
 H531 H 0.88853 0.94706 0.16615
 H532 H 0.86271 0.91803 0.19364
 H533 H 0.84872 0.88005 0.03410
 H534 H 0.78464 0.86895 0.09817
 H535 H 0.94727 0.88652 0.16612
 H536 H 0.91829 0.86359 0.19397
 H537 H 0.80688 0.91812 0.13710
 H538 H 0.83332 0.94685 0.11185
 H539 H 0.91866 0.80586 0.13817
 H540 H 0.94755 0.83308 0.11018
 O541 O 0.37492 0.33873 0.19357
 O542 O 0.40414 0.37312 0.20055
 O543 O 0.30678 0.37600 0.16076
 O544 O 0.29699 0.40107 0.12615
 O545 O 0.33908 0.30622 0.12425
 O546 O 0.37563 0.29866 0.09606
 O547 O 0.37612 0.44336 0.08936
 O548 O 0.34561 0.44994 0.12235
 O549 O 0.44304 0.41088 0.12404
 O550 O 0.45144 0.37380 0.15360
 O551 O 0.41149 0.37568 0.05697
 O552 O 0.37461 0.34674 0.04806
 O553 O 0.37632 0.41168 0.05765
 O554 O 0.34579 0.37357 0.04946
 O555 O 0.44302 0.37541 0.08863
 O556 O 0.45046 0.34499 0.12664
 O557 O 0.41151 0.44258 0.12322
 O558 O 0.37688 0.44690 0.15759
 O559 O 0.37580 0.30701 0.16185
 O560 O 0.40486 0.29936 0.12494
 O561 O 0.30736 0.33776 0.12413
 O562 O 0.30162 0.37514 0.09335
 O563 O 0.33813 0.37512 0.19268
 O564 O 0.37470 0.40681 0.19772
 Zr565 Zr 0.37393 0.37397 0.17196
 O566 O 0.39882 0.39817 0.14946
 Zr567 Zr 0.32808 0.37356 0.12539
 O568 O 0.35075 0.39847 0.10140
 Zr569 Zr 0.37440 0.32759 0.12587
 O570 O 0.39882 0.35012 0.10118
 Zr571 Zr 0.37597 0.42159 0.12441
 O572 O 0.35069 0.39922 0.14873
 Zr573 Zr 0.42204 0.37526 0.12424
 O574 O 0.39949 0.35074 0.14908
 Zr575 Zr 0.37594 0.37557 0.07803
 O576 O 0.35129 0.35035 0.10020
 O577 O 0.34978 0.34939 0.15001
 O578 O 0.40054 0.39996 0.09973
 C579 C 0.37595 0.31467 0.18595
 C580 C 0.31420 0.37628 0.18488
 C581 C 0.31504 0.31374 0.12352
 C582 C 0.37631 0.43576 0.06529
 C583 C 0.43551 0.43494 0.12345
 C584 C 0.43548 0.37562 0.06459
 H585 H 0.40958 0.40915 0.16135
 H586 H 0.40961 0.33819 0.09029
 H587 H 0.33848 0.33821 0.16121
 H588 H 0.33899 0.40963 0.09071
 H589 H 0.33348 0.44617 0.13709
 H590 H 0.30412 0.41780 0.11934
 H591 H 0.44749 0.33279 0.11180
 H592 H 0.41837 0.30540 0.13754
 H593 H 0.38064 0.46494 0.15129
 H594 H 0.36926 0.40099 0.21553
 H595 H 0.38727 0.33278 0.05276
 H596 H 0.36416 0.30505 0.08172
 H597 H 0.41834 0.36194 0.19337
 H598 H 0.44716 0.38726 0.16697
 H599 H 0.30657 0.36078 0.08118
 H600 H 0.33390 0.38868 0.05228
 O601 O 0.37477 0.66126 0.80658
 O602 O 0.40407 0.62694 0.79955
 O603 O 0.30660 0.62380 0.83914
 O604 O 0.29681 0.59855 0.87365
 O605 O 0.33857 0.69352 0.87592
 O606 O 0.37502 0.70106 0.90421
 O607 O 0.37600 0.55634 0.91049
 O608 O 0.34559 0.54978 0.87746
 O609 O 0.44290 0.58904 0.87601
 O610 O 0.45127 0.62625 0.84661
 O611 O 0.41101 0.62402 0.94316
 O612 O 0.37400 0.65285 0.95205
 O613 O 0.37599 0.58793 0.94229
 O614 O 0.34529 0.62593 0.95054
 O615 O 0.44265 0.62441 0.91158
 O616 O 0.45011 0.65497 0.87365
 O617 O 0.41147 0.55727 0.87664
 O618 O 0.37692 0.55301 0.84224
 O619 O 0.37544 0.69290 0.83839
 O620 O 0.40433 0.70051 0.87538
 O621 O 0.30695 0.66191 0.87591
 O622 O 0.30125 0.62441 0.90656
 O623 O 0.33804 0.62483 0.80729
 O624 O 0.37472 0.59319 0.80225
 Zr625 Zr 0.37378 0.62596 0.82809
 O626 O 0.39870 0.60176 0.85056
 Zr627 Zr 0.32780 0.62615 0.87456
 O628 O 0.35049 0.60122 0.89853
 Zr629 Zr 0.37397 0.67221 0.87431
 O630 O 0.39840 0.64967 0.89898
 Zr631 Zr 0.37585 0.57821 0.87550
 O632 O 0.35056 0.60060 0.85120
 Zr633 Zr 0.42178 0.62463 0.87591
 O634 O 0.39921 0.64917 0.85109
 Zr635 Zr 0.37553 0.62409 0.92201
 O636 O 0.35086 0.64933 0.89988
 O637 O 0.34949 0.65044 0.85006
 O638 O 0.40028 0.59981 0.90030
 C639 C 0.37571 0.68530 0.81427
 C640 C 0.31409 0.62362 0.81503
 C641 C 0.31455 0.68595 0.87660
 C642 C 0.37610 0.56387 0.93459
 C643 C 0.43545 0.56496 0.87648
 C644 C 0.43504 0.62415 0.93561
 H645 H 0.40953 0.59084 0.83866
 H646 H 0.40911 0.66158 0.90993
 H647 H 0.33820 0.66163 0.83887
 H648 H 0.33874 0.59000 0.90917
 H649 H 0.33347 0.55357 0.86272
 H650 H 0.30397 0.58184 0.88046
 H651 H 0.44706 0.66711 0.88854
 H652 H 0.41793 0.69451 0.86283
 H653 H 0.38071 0.53495 0.84849
 H654 H 0.36930 0.59903 0.78445
 H655 H 0.38662 0.66685 0.94742
 H656 H 0.36349 0.69461 0.91850
 H657 H 0.41823 0.63810 0.80680
 H658 H 0.44707 0.61283 0.83318
 H659 H 0.30612 0.63874 0.91879
 H660 H 0.33346 0.61080 0.94764
 O661 O 0.12469 0.66137 0.69363
 O662 O 0.09551 0.62699 0.70055
 O663 O 0.19303 0.62414 0.66109
 O664 O 0.20298 0.59900 0.62652
 O665 O 0.16083 0.69383 0.62441
 O666 O 0.12441 0.70133 0.59612
 O667 O 0.12401 0.55665 0.58947
 O668 O 0.15439 0.55010 0.62252
 O669 O 0.05694 0.58911 0.62391
 O670 O 0.04835 0.62623 0.65338
 O671 O 0.08880 0.62425 0.55690
 O672 O 0.12574 0.65325 0.54818
 O673 O 0.12395 0.58829 0.55775
 O674 O 0.15449 0.62635 0.54962
 O675 O 0.05710 0.62451 0.58844
 O676 O 0.04948 0.65502 0.62644
 O677 O 0.08849 0.55743 0.62324
 O678 O 0.12299 0.55319 0.65770
 O679 O 0.12394 0.69305 0.66190
 O680 O 0.09507 0.70065 0.62490
 O681 O 0.19258 0.66231 0.62442
 O682 O 0.19850 0.62488 0.59369
 O683 O 0.16154 0.62502 0.69290
 O684 O 0.12495 0.59329 0.69779
 Zr685 Zr 0.12583 0.62611 0.67205
 O686 O 0.10103 0.60189 0.64947
 Zr687 Zr 0.17189 0.62650 0.62565
 O688 O 0.14933 0.60156 0.60157
 Zr689 Zr 0.12553 0.67244 0.62593
 O690 O 0.10123 0.64988 0.60116
 Zr691 Zr 0.12402 0.57845 0.62451
 O692 O 0.14919 0.60085 0.64891
 Zr693 Zr 0.07791 0.62474 0.62414
 O694 O 0.10035 0.64929 0.64906
 Zr695 Zr 0.12424 0.62441 0.57811
 O696 O 0.14878 0.64966 0.60036
 O697 O 0.15006 0.65069 0.65017
 O698 O 0.09956 0.60003 0.59973
 C699 C 0.12367 0.68542 0.68599
 C700 C 0.18551 0.62388 0.68519
 C701 C 0.18488 0.68632 0.62376
 C702 C 0.12391 0.56423 0.56540
 C703 C 0.06449 0.56506 0.62339
 C704 C 0.06476 0.62428 0.56442
 H705 H 0.09022 0.59093 0.66132
 H706 H 0.09049 0.66178 0.59022
 H707 H 0.16130 0.66189 0.66141
 H708 H 0.16114 0.59039 0.59093
 H709 H 0.16646 0.55389 0.63730
 H710 H 0.19589 0.58226 0.61969
 H711 H 0.05247 0.66715 0.61155
 H712 H 0.08147 0.69460 0.63742
 H713 H 0.11928 0.53513 0.65140
 H714 H 0.13033 0.59911 0.71562
 H715 H 0.11296 0.66715 0.55276
 H716 H 0.13594 0.69493 0.58181
 H717 H 0.08130 0.63810 0.69330
 H718 H 0.05260 0.61284 0.66680
 H719 H 0.19358 0.63920 0.58149
 H720 H 0.16641 0.61128 0.55253
 O721 O 0.12492 0.16041 0.19357
 O722 O 0.09560 0.12613 0.20046
 O723 O 0.19320 0.12292 0.16122
 O724 O 0.20308 0.09762 0.12673
 O725 O 0.16136 0.19266 0.12439
 O726 O 0.12502 0.20029 0.09603
 O727 O 0.12397 0.05562 0.08948
 O728 O 0.15433 0.04897 0.12256
 O729 O 0.05703 0.08837 0.12379
 O730 O 0.04854 0.12555 0.15320
 O731 O 0.08916 0.12339 0.05681
 O732 O 0.12632 0.15220 0.04817
 O733 O 0.12410 0.08722 0.05776
 O734 O 0.15485 0.12509 0.04962
 O735 O 0.05740 0.12377 0.08827
 O736 O 0.04984 0.15432 0.12625
 O737 O 0.08846 0.05656 0.12325
 O738 O 0.12291 0.05221 0.15772
 O739 O 0.12437 0.19207 0.16181
 O740 O 0.09563 0.19977 0.12476
 O741 O 0.19298 0.16101 0.12447
 O742 O 0.19882 0.12352 0.09384
 O743 O 0.16164 0.12395 0.19296
 O744 O 0.12493 0.09233 0.19779
 Zr745 Zr 0.12598 0.12513 0.17202
 O746 O 0.10113 0.10100 0.14941
 Zr747 Zr 0.17214 0.12529 0.12572
 O748 O 0.14952 0.10043 0.10161
 Zr749 Zr 0.12596 0.17142 0.12587
 O750 O 0.10161 0.14894 0.10107
 Zr751 Zr 0.12407 0.07744 0.12451
 O752 O 0.14928 0.09975 0.14896
 Zr753 Zr 0.07815 0.12392 0.12402
 O754 O 0.10064 0.14839 0.14897
 Zr755 Zr 0.12456 0.12336 0.07809
 O756 O 0.14917 0.14852 0.10037
 O757 O 0.15036 0.14959 0.15018
 O758 O 0.09973 0.09910 0.09967
 C759 C 0.12400 0.18445 0.18591
 C760 C 0.18563 0.12272 0.18531
 C761 C 0.18538 0.18505 0.12376
 C762 C 0.12392 0.06316 0.06540
 C763 C 0.06449 0.06429 0.12334
 C764 C 0.06511 0.12354 0.06427
 H765 H 0.09026 0.09009 0.16126
 H766 H 0.09095 0.16089 0.09011
 H767 H 0.16161 0.16076 0.16142
 H768 H 0.16129 0.08919 0.09099
 H769 H 0.16640 0.05271 0.13735
 H770 H 0.19597 0.08095 0.11978
 H771 H 0.05292 0.16644 0.11137
 H772 H 0.08198 0.19378 0.13724
 H773 H 0.11914 0.03416 0.15142
 H774 H 0.13030 0.09815 0.21562
 H775 H 0.11353 0.16612 0.05267
 H776 H 0.13656 0.19383 0.08175
 H777 H 0.08146 0.13730 0.19318
 H778 H 0.05271 0.11215 0.16664
 H779 H 0.19394 0.13780 0.08157
 H780 H 0.16671 0.10998 0.05258
 O781 O 0.69385 0.37566 0.83938
 O782 O 0.70080 0.40476 0.87384
 O783 O 0.66154 0.30713 0.87645
 O784 O 0.62711 0.29720 0.90176
 O785 O 0.62479 0.33940 0.80690
 O786 O 0.59646 0.37586 0.79948
 O787 O 0.59001 0.37614 0.94423
 O788 O 0.62303 0.34575 0.95069
 O789 O 0.62420 0.44333 0.91187
 O790 O 0.65356 0.45200 0.87471
 O791 O 0.55731 0.41146 0.87666
 O792 O 0.54868 0.37444 0.84759
 O793 O 0.55830 0.37624 0.91261
 O794 O 0.55013 0.34572 0.87451
 O795 O 0.58873 0.44321 0.87644
 O796 O 0.62667 0.45086 0.84591
 O797 O 0.62366 0.41170 0.94350
 O798 O 0.65811 0.37721 0.94762
 O799 O 0.66215 0.37641 0.80771
 O800 O 0.62516 0.40522 0.80015
 O801 O 0.62485 0.30761 0.83839
 O802 O 0.59427 0.30163 0.87585
 O803 O 0.69325 0.33867 0.87561
 O804 O 0.69806 0.37527 0.90750
 Zr805 Zr 0.67235 0.37442 0.87467
 O806 O 0.64979 0.39923 0.89895
 Zr807 Zr 0.62611 0.32830 0.87424
 O808 O 0.60206 0.35086 0.89924
 Zr809 Zr 0.62626 0.37474 0.82836
 O810 O 0.60152 0.39905 0.85098
 Zr811 Zr 0.62495 0.37618 0.92238
 O812 O 0.64933 0.35100 0.89992
 Zr813 Zr 0.62442 0.42239 0.87616
 O814 O 0.64933 0.39994 0.85155
 Zr815 Zr 0.57857 0.37599 0.87644
 O816 O 0.60079 0.35143 0.85113
 O817 O 0.65053 0.35018 0.85005
 O818 O 0.60013 0.40068 0.90087
 C819 C 0.68620 0.37671 0.81534
 C820 C 0.68559 0.31466 0.87668
 C821 C 0.62416 0.31532 0.81438
 C822 C 0.56597 0.37623 0.93667
 C823 C 0.62375 0.43574 0.93592
 C824 C 0.56475 0.43553 0.87665
 H825 H 0.66162 0.41005 0.90992
 H826 H 0.59057 0.40981 0.83910
 H827 H 0.66175 0.33896 0.83880
 H828 H 0.59146 0.33903 0.91040
 H829 H 0.63781 0.33368 0.94688
 H830 H 0.62016 0.30426 0.91848
 H831 H 0.61179 0.44789 0.83378
 H832 H 0.63759 0.41887 0.80625
 H833 H 0.65183 0.38088 0.96571
 H834 H 0.71585 0.36985 0.90167
 H835 H 0.55319 0.38729 0.83373
 H836 H 0.58221 0.36428 0.80588
 H837 H 0.69349 0.41903 0.86285
 H838 H 0.66698 0.44775 0.88809
 H839 H 0.58202 0.30659 0.86159
 H840 H 0.55311 0.33375 0.88952
 O841 O 0.12462 0.83983 0.80680
 O842 O 0.09544 0.87424 0.79989
 O843 O 0.19281 0.87697 0.83963
 O844 O 0.20250 0.90211 0.87430
 O845 O 0.16060 0.80717 0.87600
 O846 O 0.12407 0.79958 0.90421
 O847 O 0.12335 0.94421 0.91130
 O848 O 0.15383 0.95089 0.87837
 O849 O 0.05645 0.91183 0.87651
 O850 O 0.04809 0.87478 0.84689
 O851 O 0.08804 0.87642 0.94353
 O852 O 0.12508 0.84743 0.95223
 O853 O 0.12320 0.91247 0.94292
 O854 O 0.15369 0.87443 0.95107
 O855 O 0.05650 0.87624 0.91188
 O856 O 0.04913 0.84591 0.87373
 O857 O 0.08794 0.94353 0.87737
 O858 O 0.12260 0.94789 0.84308
 O859 O 0.12381 0.80805 0.83843
 O860 O 0.09486 0.80027 0.87531
 O861 O 0.19228 0.83872 0.87621
 O862 O 0.19799 0.87604 0.90705
 O863 O 0.16145 0.87616 0.80773
 O864 O 0.12484 0.90793 0.80286
 Zr865 Zr 0.12564 0.87502 0.82849
 O866 O 0.10069 0.89914 0.85107
 Zr867 Zr 0.17150 0.87452 0.87502
 O868 O 0.14877 0.89934 0.89912
 Zr869 Zr 0.12524 0.82855 0.87446
 O870 O 0.10076 0.85100 0.89921
 Zr871 Zr 0.12352 0.92252 0.87619
 O872 O 0.14884 0.90023 0.85179
 Zr873 Zr 0.07750 0.87620 0.87625
 O874 O 0.10011 0.85175 0.85133
 Zr875 Zr 0.12360 0.87641 0.92243
 O876 O 0.14832 0.85127 0.90018
 O877 O 0.14983 0.85039 0.85036
 O878 O 0.09897 0.90086 0.90082
 C879 C 0.12360 0.81576 0.81436
 C880 C 0.18539 0.87728 0.81551
 C881 C 0.18464 0.81469 0.87676
 C882 C 0.12319 0.93655 0.93535
 C883 C 0.06395 0.93589 0.87710
 C884 C 0.06403 0.87635 0.93593
 H885 H 0.08992 0.91014 0.83922
 H886 H 0.09000 0.83904 0.91007
 H887 H 0.16113 0.83923 0.83912
 H888 H 0.16051 0.91049 0.90984
 H889 H 0.16598 0.94716 0.86363
 H890 H 0.19537 0.91876 0.88131
 H891 H 0.05210 0.83370 0.88856
 H892 H 0.08128 0.80637 0.86281
 H893 H 0.11883 0.96593 0.84943
 H894 H 0.13030 0.90217 0.78503
 H895 H 0.11230 0.83357 0.94759
 H896 H 0.13557 0.80593 0.91854
 H897 H 0.08122 0.86310 0.80706
 H898 H 0.05235 0.88824 0.83354
 H899 H 0.19301 0.86172 0.91923
 H900 H 0.16568 0.88943 0.94815
 O901 O 0.69370 0.12476 0.66078
 O902 O 0.70057 0.09558 0.62631
 O903 O 0.66136 0.19328 0.62368
 O904 O 0.62692 0.20327 0.59848
 O905 O 0.62466 0.16114 0.69335
 O906 O 0.59633 0.12472 0.70085
 O907 O 0.58975 0.12430 0.55608
 O908 O 0.62278 0.15469 0.54955
 O909 O 0.62399 0.05713 0.58845
 O910 O 0.65335 0.04847 0.62560
 O911 O 0.55711 0.08916 0.62372
 O912 O 0.54848 0.12615 0.65277
 O913 O 0.55807 0.12431 0.58776
 O914 O 0.55000 0.15493 0.62589
 O915 O 0.58852 0.05735 0.62389
 O916 O 0.62643 0.04964 0.65440
 O917 O 0.62343 0.08873 0.55679
 O918 O 0.65787 0.12320 0.55258
 O919 O 0.66202 0.12408 0.69251
 O920 O 0.62500 0.09530 0.70013
 O921 O 0.62472 0.19290 0.66183
 O922 O 0.59409 0.19888 0.62441
 O923 O 0.69306 0.16169 0.62451
 O924 O 0.69787 0.12508 0.59266
 Zr925 Zr 0.67216 0.12598 0.62552
 O926 O 0.64957 0.10121 0.60129
 Zr927 Zr 0.62593 0.17218 0.62599
 O928 O 0.60186 0.14965 0.60104
 Zr929 Zr 0.62611 0.12577 0.67192
 O930 O 0.60133 0.10150 0.64934
 Zr931 Zr 0.62472 0.12428 0.57788
 O932 O 0.64913 0.14942 0.60029
 Zr933 Zr 0.62422 0.07811 0.62414
 O934 O 0.64915 0.10052 0.64870
 Zr935 Zr 0.57838 0.12458 0.62390
 O936 O 0.60063 0.14910 0.64917
 O937 O 0.65036 0.15028 0.65016
 O938 O 0.59992 0.09983 0.59945
 C939 C 0.68607 0.12373 0.68484
 C940 C 0.68541 0.18570 0.62342
 C941 C 0.62404 0.18520 0.68585
 C942 C 0.56572 0.12424 0.56368
 C943 C 0.62353 0.06471 0.56440
 C944 C 0.56455 0.06508 0.62370
 H945 H 0.66139 0.09037 0.59030
 H946 H 0.59038 0.09077 0.66125
 H947 H 0.66160 0.16150 0.66138
 H948 H 0.59125 0.16149 0.58988
 H949 H 0.63756 0.16674 0.55333
 H950 H 0.61999 0.19622 0.58176
 H951 H 0.61156 0.05266 0.66655
 H952 H 0.63744 0.08164 0.69403
 H953 H 0.65157 0.11952 0.53450
 H954 H 0.71567 0.13045 0.59847
 H955 H 0.55303 0.11337 0.66667
 H956 H 0.58208 0.13631 0.69447
 H957 H 0.69329 0.08136 0.63740
 H958 H 0.66676 0.05268 0.61218
 H959 H 0.58187 0.19398 0.63873
 H960 H 0.55290 0.16683 0.61079
 C961 C 0.37644 0.79587 0.70597
 C962 C 0.37688 0.77898 0.72258
 C963 C 0.37713 0.75910 0.74195
 C964 C 0.37714 0.74211 0.75846
 C965 C 0.37691 0.72222 0.77782
 C966 C 0.37649 0.70531 0.79441
 C967 C 0.37637 0.20427 0.29442
 C968 C 0.37684 0.22114 0.27778
 C969 C 0.37715 0.24099 0.25838
 C970 C 0.37721 0.25796 0.24186
 C971 C 0.37704 0.27783 0.22247
 C972 C 0.37668 0.29472 0.20586
 C973 C 0.62306 0.79478 0.29402
 C974 C 0.62267 0.77791 0.27740
 C975 C 0.62249 0.75809 0.25798
 C976 C 0.62255 0.74116 0.24142
 C977 C 0.62288 0.72134 0.22200
 C978 C 0.62338 0.70448 0.20538
 C979 C 0.12301 0.29509 0.29413
 C980 C 0.12257 0.27818 0.27754
 C981 C 0.12234 0.25828 0.25820
 C982 C 0.12237 0.24126 0.24171
 C983 C 0.12267 0.22136 0.22237
 C984 C 0.12315 0.20444 0.20578
 C985 C 0.12283 0.70538 0.70588
 C986 C 0.12237 0.72228 0.72249
 C987 C 0.12211 0.74215 0.74186
 C988 C 0.12211 0.75913 0.75838
 C989 C 0.12236 0.77898 0.77777
 C990 C 0.12280 0.79585 0.79441
 C991 C 0.87731 0.20486 0.79418
 C992 C 0.87776 0.22173 0.77758
 C993 C 0.87802 0.24155 0.75821
 C994 C 0.87799 0.25848 0.74167
 C995 C 0.87770 0.27829 0.72230
 C996 C 0.87721 0.29516 0.70570
 C997 C 0.79464 0.37766 0.70517
 C998 C 0.77800 0.37819 0.72200
 C999 C 0.75859 0.37849 0.74179
 C1000 C 0.74204 0.37848 0.75871
 C1001 C 0.72265 0.37817 0.77851
 C1002 C 0.70604 0.37764 0.79538
 C1003 C 0.29414 0.62264 0.79517
 C1004 C 0.27749 0.62213 0.77835
 C1005 C 0.25806 0.62186 0.75858
 C1006 C 0.24149 0.62190 0.74168
 C1007 C 0.22207 0.62227 0.72190
 C1008 C 0.20543 0.62285 0.70508
 C1009 C 0.29389 0.12172 0.29569
 C1010 C 0.27726 0.12114 0.27885
 C1011 C 0.25789 0.12081 0.25901
 C1012 C 0.24140 0.12081 0.24203
 C1013 C 0.22206 0.12113 0.22216
 C1014 C 0.20549 0.12169 0.20526
 C1015 C 0.79475 0.12249 0.79480
 C1016 C 0.77808 0.12203 0.77800
 C1017 C 0.75862 0.12180 0.75826
 C1018 C 0.74202 0.12187 0.74137
 C1019 C 0.72259 0.12223 0.72161
 C1020 C 0.70595 0.12278 0.70478
 C1021 C 0.70551 0.87713 0.29467
 C1022 C 0.72219 0.87756 0.27785
 C1023 C 0.74166 0.87774 0.25807
 C1024 C 0.75826 0.87765 0.24116
 C1025 C 0.77771 0.87726 0.22136
 C1026 C 0.79435 0.87671 0.20450
 C1027 C 0.79491 0.70546 0.37673
 C1028 C 0.77806 0.72207 0.37724
 C1029 C 0.75829 0.74148 0.37758
 C1030 C 0.74141 0.75806 0.37764
 C1031 C 0.72167 0.77750 0.37743
 C1032 C 0.70487 0.79416 0.37700
 C1033 C 0.79521 0.29445 0.62272
 C1034 C 0.77842 0.27779 0.62218
 C1035 C 0.75870 0.25833 0.62183
 C1036 C 0.74183 0.24173 0.62177
 C1037 C 0.72210 0.22227 0.62201
 C1038 C 0.70530 0.20561 0.62249
 C1039 C 0.70535 0.70496 0.12222
 C1040 C 0.72217 0.72160 0.12169
 C1041 C 0.74191 0.74105 0.12136
 C1042 C 0.75877 0.75766 0.12133
 C1043 C 0.77848 0.77714 0.12160
 C1044 C 0.79525 0.79383 0.12210
 C1045 C 0.29519 0.29380 0.12265
 C1046 C 0.27841 0.27711 0.12220
 C1047 C 0.25870 0.25764 0.12197
 C1048 C 0.24184 0.24103 0.12202
 C1049 C 0.22211 0.22158 0.12235
 C1050 C 0.20530 0.20493 0.12286
 C1051 C 0.29461 0.70586 0.87750
 C1052 C 0.27778 0.72252 0.87800
 C1053 C 0.25800 0.74198 0.87830
 C1054 C 0.24111 0.75859 0.87831
 C1055 C 0.22135 0.77806 0.87806
 C1056 C 0.20453 0.79474 0.87761
 C1057 C 0.29463 0.20526 0.37765
 C1058 C 0.27782 0.22192 0.37807
 C1059 C 0.25809 0.24137 0.37827
 C1060 C 0.24123 0.25797 0.37818
 C1061 C 0.22152 0.27744 0.37780
 C1062 C 0.20476 0.29414 0.37724
 C1063 C 0.54504 0.62353 1.04421
 C1064 C 0.52822 0.62354 1.02757
 C1065 C 0.50844 0.62361 1.00815
 C1066 C 0.49154 0.62370 0.99159
 C1067 C 0.47177 0.62384 0.97217
 C1068 C 0.45494 0.62398 0.95553
 C1069 C 0.45502 0.12383 0.45575
 C1070 C 0.47196 0.12382 0.47229
 C1071 C 0.49189 0.12385 0.49155
 C1072 C 0.50894 0.12391 0.50797
 C1073 C 0.52886 0.12400 0.52724
 C1074 C 0.54578 0.12411 0.54380
 C1075 C 0.54469 0.87604 0.45538
 C1076 C 0.52788 0.87618 0.47207
 C1077 C 0.50813 0.87633 0.49157
 C1078 C 0.49125 0.87643 0.50819
 C1079 C 0.47151 0.87651 0.52769
 C1080 C 0.45471 0.87655 0.54440
 C1081 C 1.04499 0.37646 0.45550
 C1082 C 1.02821 0.37655 0.47219
 C1083 C 1.00849 0.37659 0.49167
 C1084 C 0.99165 0.37658 0.50829
 C1085 C 0.97194 0.37652 0.52778
 C1086 C 0.95516 0.37642 0.54447
 C1087 C -0.04655 0.87579 1.04424
 C1088 C -0.02967 0.87596 1.02761
 C1089 C -0.00979 0.87613 1.00824
 C1090 C 0.00721 0.87624 0.99174
 C1091 C 0.02712 0.87632 0.97240
 C1092 C 0.04404 0.87636 0.95582
 C1093 C -0.04451 0.12358 -0.04475
 C1094 C -0.02773 0.12349 -0.02806
 C1095 C -0.00801 0.12343 -0.00858
 C1096 C 0.00883 0.12341 0.00805
 C1097 C 0.02852 0.12342 0.02756
 C1098 C 0.04528 0.12347 0.04427
 C1099 C 0.12367 1.04432 1.04650
 C1100 C 0.12346 1.02776 1.02954
 C1101 C 0.12325 1.00851 1.00955
 C1102 C 0.12312 0.99211 0.99244
 C1103 C 0.12305 0.97289 0.97241
 C1104 C 0.12307 0.95638 0.95541
 C1105 C 0.12388 0.45624 0.45450
 C1106 C 0.12378 0.47280 0.47145
 C1107 C 0.12371 0.49208 0.49142
 C1108 C 0.12369 0.50850 0.50849
 C1109 C 0.12373 0.52778 0.52846
 C1110 C 0.12379 0.54433 0.54542
 C1111 C 0.37648 0.45565 1.04529
 C1112 C 0.37657 0.47222 1.02835
 C1113 C 0.37660 0.49154 1.00841
 C1114 C 0.37657 0.50800 0.99137
 C1115 C 0.37646 0.52733 0.97145
 C1116 C 0.37632 0.54393 0.95453
 C1117 C 0.87634 0.54483 0.45542
 C1118 C 0.87644 0.52826 0.47232
 C1119 C 0.87652 0.50892 0.49218
 C1120 C 0.87654 0.49242 0.50914
 C1121 C 0.87650 0.47305 0.52896
 C1122 C 0.87642 0.45642 0.54581
 C1123 C 0.87688 1.04352 -0.04602
 C1124 C 0.87705 1.02685 -0.02921
 C1125 C 0.87717 1.00742 -0.00945
 C1126 C 0.87720 0.99085 0.00745
 C1127 C 0.87712 0.97144 0.02724
 C1128 C 0.87695 0.95482 0.04408
 C1129 C 0.62328 -0.04391 0.45416
 C1130 C 0.62310 -0.02725 0.47100
 C1131 C 0.62296 -0.00781 0.49080
 C1132 C 0.62293 0.00876 0.50774
 C1133 C 0.62300 0.02817 0.52756
 C1134 C 0.62318 0.04481 0.54443
 C1135 C 0.45517 1.04450 0.37744
 C1136 C 0.47188 1.02775 0.37758
 C1137 C 0.49140 1.00809 0.37759
 C1138 C 0.50807 0.99129 0.37747
 C1139 C 0.52759 0.97163 0.37720
 C1140 C 0.54430 0.95488 0.37687
 C1141 C -0.04450 -0.04532 0.12304
 C1142 C -0.02782 -0.02853 0.12289
 C1143 C -0.00833 -0.00883 0.12277
 C1144 C 0.00830 0.00800 0.12275
 C1145 C 0.02781 0.02769 0.12282
 C1146 C 0.04452 0.04444 0.12300
 C1147 C 0.54455 0.54449 0.12286
 C1148 C 0.52782 0.52775 0.12268
 C1149 C 0.50829 0.50809 0.12260
 C1150 C 0.49163 0.49128 0.12264
 C1151 C 0.47212 0.47160 0.12281
 C1152 C 0.45543 0.45483 0.12306
 C1153 C -0.04439 0.45533 0.62312
 C1154 C -0.02770 0.47211 0.62288
 C1155 C -0.00820 0.49181 0.62271
 C1156 C 0.00843 0.50864 0.62269
 C1157 C 0.02791 0.52835 0.62280
 C1158 C 0.04458 0.54514 0.62301
 C1159 C 0.45545 0.54509 0.87678
 C1160 C 0.47219 0.52833 0.87695
 C1161 C 0.49175 0.50865 0.87704
 C1162 C 0.50845 0.49184 0.87704
 C1163 C 0.52801 0.47217 0.87696
 C1164 C 0.54475 0.45541 0.87684
 C1165 C 0.62353 0.54422 1.04630
 C1166 C 0.62334 0.52756 1.02945
 C1167 C 0.62319 0.50815 1.00963
 C1168 C 0.62315 0.49161 0.99267
 C1169 C 0.62322 0.47222 0.97281
 C1170 C 0.62340 0.45561 0.95591
 C1171 C 0.37618 1.04481 0.45434
 C1172 C 0.37629 1.02829 0.47133
 C1173 C 0.37634 1.00904 0.49134
 C1174 C 0.37632 0.99264 0.50845
 C1175 C 0.37623 0.97339 0.52845
 C1176 C 0.37610 0.95685 0.54542
 C1177 C -0.04497 0.62364 0.45553
 C1178 C -0.02818 0.62357 0.47222
 C1179 C -0.00847 0.62360 0.49169
 C1180 C 0.00839 0.62369 0.50831
 C1181 C 0.02811 0.62387 0.52778
 C1182 C 0.04489 0.62406 0.54446
 C1183 C 0.45546 0.37580 1.04475
 C1184 C 0.47238 0.37595 1.02820
 C1185 C 0.49229 0.37610 1.00892
 C1186 C 0.50930 0.37620 0.99247
 C1187 C 0.52918 0.37627 0.97317
 C1188 C 0.54607 0.37628 0.95658
 C1189 C 0.45527 -0.04424 0.62315
 C1190 C 0.47201 -0.02751 0.62303
 C1191 C 0.49157 -0.00788 0.62301
 C1192 C 0.50826 0.00889 0.62310
 C1193 C 0.52782 0.02852 0.62327
 C1194 C 0.54456 0.04525 0.62347
 C1195 C -0.04367 0.54580 0.37670
 C1196 C -0.02701 0.52898 0.37690
 C1197 C -0.00761 0.50920 0.37707
 C1198 C 0.00892 0.49226 0.37711
 C1199 C 0.02829 0.47244 0.37705
 C1200 C 0.04488 0.45556 0.37688
 C1201 C -0.04513 1.04566 0.87667
 C1202 C -0.02842 1.02887 0.87700
 C1203 C -0.00889 1.00916 0.87730
 C1204 C 0.00776 0.99232 0.87745
 C1205 C 0.02729 0.97260 0.87748
 C1206 C 0.04399 0.95580 0.87738
 C1207 C 0.79444 0.62218 0.29478
 C1208 C 0.77783 0.62159 0.27793
 C1209 C 0.75844 0.62120 0.25812
 C1210 C 0.74190 0.62113 0.24120
 C1211 C 0.72249 0.62138 0.22141
 C1212 C 0.70584 0.62187 0.20458
 C1213 C 0.29408 0.87852 0.70530
 C1214 C 0.27745 0.87904 0.72218
 C1215 C 0.25804 0.87932 0.74203
 C1216 C 0.24149 0.87928 0.75898
 C1217 C 0.22206 0.87891 0.77881
 C1218 C 0.20539 0.87833 0.79564
 C1219 C 0.20559 0.37746 0.29488
 C1220 C 0.22221 0.37799 0.27803
 C1221 C 0.24160 0.37829 0.25823
 C1222 C 0.25815 0.37827 0.24130
 C1223 C 0.27756 0.37791 0.22151
 C1224 C 0.29423 0.37733 0.20471
 C1225 C 0.87741 0.70460 0.29401
 C1226 C 0.87795 0.72139 0.27733
 C1227 C 0.87825 0.74115 0.25791
 C1228 C 0.87825 0.75807 0.24135
 C1229 C 0.87794 0.77785 0.22194
 C1230 C 0.87743 0.79467 0.20530
 C1231 C 0.62329 0.29545 0.79441
 C1232 C 0.62280 0.27860 0.77776
 C1233 C 0.62251 0.25876 0.75837
 C1234 C 0.62250 0.24180 0.74183
 C1235 C 0.62275 0.22196 0.72244
 C1236 C 0.62320 0.20510 0.70580
 C1237 C 0.79535 0.20561 0.87725
 C1238 C 0.77856 0.22231 0.87780
 C1239 C 0.75884 0.24183 0.87815
 C1240 C 0.74199 0.25848 0.87822
 C1241 C 0.72228 0.27800 0.87800
 C1242 C 0.70549 0.29470 0.87755
 C1243 C 0.29451 0.79524 0.62297
 C1244 C 0.27772 0.77858 0.62248
 C1245 C 0.25800 0.75911 0.62219
 C1246 C 0.24117 0.74248 0.62218
 C1247 C 0.22148 0.72299 0.62244
 C1248 C 0.20472 0.70629 0.62290
   
