data_POSCAR
  _audit_creation_date              2014-09-24
  _audit_creation_method            'ToBaCCo'
  _symmetry_space_group_name_H-M    'P1'
  _symmetry_Int_Tables_number       1
  _symmetry_cell_setting            triclinic
  loop_
  _symmetry_equiv_pos_as_xyz
 x,y,z
_cell_length_a 62.0271
_cell_length_b 61.9952
_cell_length_c 62.0235
_cell_angle_alpha 90.008400
_cell_angle_beta 90.039800
_cell_angle_gamma 90.018400
loop_
  _atom_site_label
  _atom_site_type_symbol
  _atom_site_fract_x
  _atom_site_fract_y
  _atom_site_fract_z
C1 C 0.09457 0.01726 0.22472
 H2 H 0.09380 0.02988 0.23674
 C3 C 0.08291 0.01924 0.20550
 H4 H 0.07298 0.03334 0.20275
 C5 C 0.10926 -0.01608 0.21304
 H6 H 0.12003 -0.02950 0.21566
 C7 C 0.09788 -0.01474 0.19368
 H8 H 0.09973 -0.02728 0.18165
 N9 N 0.10746 -0.00019 0.22808
 C10 C 0.12090 -0.00420 0.29695
 H11 H 0.13829 -0.00512 0.29604
 C12 C 0.11065 -0.00572 0.31687
 H13 H 0.12015 -0.00771 0.33140
 C14 C 0.08724 -0.00076 0.27906
 H15 H 0.07824 0.00088 0.26423
 C16 C 0.07631 -0.00223 0.29874
 H17 H 0.05886 -0.00150 0.29909
 Zn18 Zn 0.12533 -0.00080 0.25282
 N19 N 0.10917 -0.00160 0.27860
 C20 C 0.14106 0.03912 0.26830
 N21 N 0.14260 0.02435 0.25212
 C22 C 0.15488 0.02819 0.23435
 C23 C 0.16622 0.04759 0.23235
 C24 C 0.15213 0.05866 0.26695
 C25 C 0.13096 -0.04483 0.25534
 C26 C 0.14167 -0.06457 0.25589
 C27 C 0.17546 -0.04557 0.25144
 C28 C 0.16404 -0.02610 0.25099
 N29 N 0.14216 -0.02616 0.25272
 H30 H 0.13077 0.03609 0.28200
 H31 H 0.15545 0.01638 0.22152
 H32 H 0.17569 0.05071 0.21801
 H33 H 0.15053 0.07046 0.27974
 H34 H 0.11360 -0.04433 0.25696
 H35 H 0.13246 -0.07931 0.25785
 H36 H 0.19288 -0.04541 0.24995
 H37 H 0.17264 -0.01103 0.24933
 C38 C 0.08817 -0.00472 0.31779
 C39 C 0.08476 0.00315 0.18979
 C40 C 0.16412 -0.06498 0.25387
 C41 C 0.16467 0.06301 0.24875
 C42 C 0.40476 0.01754 0.77648
 H43 H 0.40608 0.03027 0.76463
 C44 C 0.41562 0.01930 0.79619
 H45 H 0.42551 0.03333 0.79948
 C46 C 0.38946 -0.01584 0.78724
 H47 H 0.37876 -0.02919 0.78406
 C48 C 0.40003 -0.01472 0.80706
 H49 H 0.39766 -0.02737 0.81887
 N50 N 0.39195 0.00017 0.77242
 C51 C 0.38085 -0.00346 0.70309
 H52 H 0.36345 -0.00468 0.70354
 C53 C 0.39162 -0.00454 0.68342
 H54 H 0.38251 -0.00653 0.66864
 C55 C 0.41396 0.00046 0.72188
 H56 H 0.42254 0.00217 0.73695
 C57 C 0.42542 -0.00056 0.70246
 H58 H 0.44284 0.00056 0.70255
 Zn59 Zn 0.37502 -0.00028 0.74700
 N60 N 0.39205 -0.00080 0.72176
 C61 C 0.35998 0.03972 0.73119
 N62 N 0.35770 0.02487 0.74720
 C63 C 0.34470 0.02868 0.76446
 C64 C 0.33339 0.04813 0.76610
 C65 C 0.34896 0.05930 0.73219
 C66 C 0.36979 -0.04429 0.74383
 C67 C 0.35928 -0.06412 0.74292
 C68 C 0.32523 -0.04552 0.74666
 C69 C 0.33642 -0.02593 0.74750
 N70 N 0.35834 -0.02575 0.74631
 H71 H 0.37082 0.03673 0.71792
 H72 H 0.34355 0.01681 0.77719
 H73 H 0.32335 0.05122 0.78004
 H74 H 0.35117 0.07115 0.71954
 H75 H 0.38718 -0.04361 0.74268
 H76 H 0.36857 -0.07881 0.74112
 H77 H 0.30780 -0.04567 0.74777
 H78 H 0.32764 -0.01096 0.74909
 C79 C 0.41408 -0.00305 0.68308
 C80 C 0.41306 0.00308 0.81166
 C81 C 0.33683 -0.06477 0.74441
 C82 C 0.33571 0.06363 0.74987
 C83 C 0.90388 0.51817 0.27724
 H84 H 0.90515 0.53100 0.26549
 C85 C 0.91460 0.51990 0.29702
 H86 H 0.92434 0.53401 0.30042
 C87 C 0.88885 0.48456 0.28764
 H88 H 0.87831 0.47112 0.28427
 C89 C 0.89927 0.48563 0.30754
 H90 H 0.89693 0.47281 0.31920
 N91 N 0.89128 0.50070 0.27296
 C92 C 0.88120 0.49742 0.20346
 H93 H 0.86383 0.49590 0.20363
 C94 C 0.89229 0.49683 0.18395
 H95 H 0.88344 0.49491 0.16900
 C96 C 0.91396 0.50168 0.22280
 H97 H 0.92228 0.50337 0.23802
 C98 C 0.92572 0.50117 0.20355
 H99 H 0.94312 0.50263 0.20392
 Zn100 Zn 0.87467 0.50029 0.24732
 N101 N 0.89207 0.50004 0.22234
 C102 C 0.85974 0.54031 0.23150
 N103 N 0.85728 0.52540 0.24742
 C104 C 0.84408 0.52915 0.26454
 C105 C 0.83278 0.54861 0.26614
 C106 C 0.84875 0.55991 0.23246
 C107 C 0.86954 0.45622 0.24387
 C108 C 0.85905 0.43638 0.24276
 C109 C 0.82495 0.45495 0.24620
 C110 C 0.83613 0.47455 0.24724
 N111 N 0.85805 0.47476 0.24630
 H112 H 0.87074 0.53739 0.21835
 H113 H 0.84278 0.51723 0.27722
 H114 H 0.82259 0.55166 0.27999
 H115 H 0.85112 0.57182 0.21989
 H116 H 0.88694 0.45692 0.24291
 H117 H 0.86837 0.42171 0.24102
 H118 H 0.80751 0.45480 0.24713
 H119 H 0.82732 0.48950 0.24880
 C120 C 0.91471 0.49879 0.18397
 C121 C 0.91212 0.50352 0.31237
 C122 C 0.83658 0.43572 0.24401
 C123 C 0.83531 0.56419 0.25001
 C124 C 0.59465 0.51912 0.72306
 H125 H 0.59393 0.53163 0.73521
 C126 C 0.58311 0.52141 0.70382
 H127 H 0.57331 0.53562 0.70117
 C128 C 0.60908 0.48576 0.71113
 H129 H 0.61969 0.47221 0.71370
 C130 C 0.59782 0.48740 0.69174
 H131 H 0.59959 0.47496 0.67960
 N132 N 0.60735 0.50151 0.72633
 C133 C 0.61997 0.49680 0.79528
 H134 H 0.63735 0.49562 0.79454
 C135 C 0.60950 0.49546 0.81509
 H136 H 0.61883 0.49332 0.82971
 C137 C 0.58656 0.50083 0.77705
 H138 H 0.57773 0.50267 0.76214
 C139 C 0.57540 0.49956 0.79662
 H140 H 0.55797 0.50060 0.79681
 Zn141 Zn 0.62494 0.50051 0.75124
 N142 N 0.60847 0.49964 0.77681
 C143 C 0.64066 0.54019 0.76728
 N144 N 0.64234 0.52557 0.75099
 C145 C 0.65488 0.52951 0.73342
 C146 C 0.66634 0.54886 0.73174
 C147 C 0.65185 0.55968 0.76625
 C148 C 0.63044 0.45637 0.75335
 C149 C 0.64120 0.43666 0.75410
 C150 C 0.67503 0.45573 0.75066
 C151 C 0.66360 0.47518 0.74997
 N152 N 0.64168 0.47508 0.75114
 H153 H 0.63017 0.53710 0.78080
 H154 H 0.65555 0.51781 0.72049
 H155 H 0.67602 0.55205 0.71757
 H156 H 0.65014 0.57137 0.77913
 H157 H 0.61305 0.45683 0.75455
 H158 H 0.63208 0.42185 0.75578
 H159 H 0.69247 0.45583 0.74968
 H160 H 0.67222 0.49027 0.74866
 C161 C 0.58704 0.49688 0.81579
 C162 C 0.58487 0.50546 0.68797
 C163 C 0.66367 0.43633 0.75273
 C164 C 0.66466 0.56412 0.74827
 C165 C 0.27747 0.09539 0.98052
 H166 H 0.26533 0.09470 0.96801
 C167 C 0.29665 0.08375 0.97828
 H168 H 0.29927 0.07392 0.96409
 C169 C 0.28941 0.10979 1.01390
 H170 H 0.28687 0.12041 1.02745
 C171 C 0.30875 0.09844 1.01230
 H172 H 0.32087 0.10014 1.02478
 N173 N 0.27423 0.10810 0.99813
 C174 C 0.20528 0.12048 1.00291
 H175 H 0.20595 0.13788 1.00411
 C176 C 0.18551 0.10990 1.00425
 H177 H 0.17085 0.11916 1.00640
 C178 C 0.22363 0.08714 0.99885
 H179 H 0.23857 0.07838 0.99700
 C180 C 0.20411 0.07588 1.00011
 H181 H 0.20400 0.05844 0.99905
 Zn182 Zn 0.24930 0.12566 0.99918
 N183 N 0.22378 0.10907 1.00006
 C184 C 0.23319 0.14124 0.95951
 N185 N 0.24947 0.14307 0.97413
 C186 C 0.26699 0.15569 0.97014
 C187 C 0.26863 0.16703 0.95072
 C188 C 0.23419 0.15230 0.93996
 C189 C 0.24719 0.13094 1.04329
 C190 C 0.24646 0.14154 1.06308
 C191 C 0.24996 0.17556 1.04427
 C192 C 0.25062 0.16424 1.02474
 N193 N 0.24942 0.14232 1.02468
 H194 H 0.21971 0.13069 0.96264
 H195 H 0.27991 0.15649 0.98184
 H196 H 0.28278 0.17675 0.94748
 H197 H 0.22133 0.15044 0.92827
 H198 H 0.24596 0.11354 1.04269
 H199 H 0.24476 0.13221 1.07777
 H200 H 0.25099 0.19301 1.04421
 H201 H 0.25197 0.17296 1.00972
 C202 C 0.18490 0.08743 1.00280
 C203 C 0.31247 0.08544 0.99428
 C204 C 0.24787 0.16405 1.06362
 C205 C 0.25214 0.16515 0.93544
 C206 C 0.72409 0.40352 0.98426
 H207 H 0.73573 0.40467 0.97132
 C208 C 0.70445 0.41452 0.98276
 H209 H 0.70099 0.42432 0.96872
 C210 C 0.71386 0.38861 1.01795
 H211 H 0.71723 0.37805 1.03136
 C212 C 0.69410 0.39932 1.01710
 H213 H 0.68252 0.39717 1.02999
 N214 N 0.72840 0.39087 1.00168
 C215 C 0.79787 0.38070 1.00450
 H216 H 0.79775 0.36331 1.00592
 C217 C 0.81736 0.39185 1.00505
 H218 H 0.83234 0.38305 1.00683
 C219 C 0.77844 0.41343 1.00054
 H220 H 0.76320 0.42173 0.99900
 C221 C 0.79767 0.42526 1.00101
 H222 H 0.79724 0.44268 0.99966
 Zn223 Zn 0.75394 0.37413 1.00191
 N224 N 0.77896 0.39153 1.00205
 C225 C 0.76947 0.35918 0.96179
 N226 N 0.75363 0.35672 0.97679
 C227 C 0.73645 0.34355 0.97310
 C228 C 0.73470 0.33229 0.95362
 C229 C 0.76836 0.34822 0.94218
 C230 C 0.75771 0.36911 1.04593
 C231 C 0.75878 0.35873 1.06581
 C232 C 0.75484 0.32453 1.04741
 C233 C 0.75386 0.33564 1.02778
 N234 N 0.75505 0.35756 1.02747
 H235 H 0.78266 0.37016 0.96467
 H236 H 0.72384 0.34225 0.98507
 H237 H 0.72080 0.32213 0.95063
 H238 H 0.78086 0.35059 0.93022
 H239 H 0.75885 0.38651 1.04514
 H240 H 0.76069 0.36822 1.08038
 H241 H 0.75368 0.30708 1.04756
 H242 H 0.75210 0.32677 1.01288
 C243 C 0.81728 0.41431 1.00322
 C244 C 0.68929 0.41226 0.99930
 C245 C 0.75724 0.33623 1.06662
 C246 C 0.75074 0.33482 0.93796
 C247 C 0.22377 0.90394 0.48306
 H248 H 0.23560 0.90521 0.47031
 C249 C 0.20402 0.91469 0.48123
 H250 H 0.20067 0.92444 0.46713
 C251 C 0.21314 0.88887 0.51656
 H252 H 0.21639 0.87829 0.52999
 C253 C 0.19327 0.89933 0.51537
 H254 H 0.18149 0.89700 0.52805
 N255 N 0.22792 0.89130 0.50052
 C256 C 0.29729 0.88048 0.50391
 H257 H 0.29690 0.86308 0.50522
 C258 C 0.31693 0.89134 0.50484
 H259 H 0.33175 0.88230 0.50679
 C260 C 0.27838 0.91351 0.49993
 H261 H 0.26327 0.92203 0.49826
 C262 C 0.29777 0.92506 0.50079
 H263 H 0.29762 0.94249 0.49959
 Zn264 Zn 0.25339 0.87446 0.50097
 N265 N 0.27857 0.89159 0.50130
 C266 C 0.26901 0.85932 0.46096
 N267 N 0.25310 0.85703 0.47590
 C268 C 0.23582 0.84399 0.47221
 C269 C 0.23403 0.83269 0.45277
 C270 C 0.26786 0.84831 0.44138
 C271 C 0.25674 0.86940 0.54498
 C272 C 0.25785 0.85895 0.56483
 C273 C 0.25425 0.82480 0.54634
 C274 C 0.25321 0.83594 0.52673
 N275 N 0.25424 0.85787 0.52649
 H276 H 0.28229 0.87019 0.46385
 H277 H 0.22317 0.84283 0.48415
 H278 H 0.22006 0.82264 0.44976
 H279 H 0.28041 0.85054 0.42944
 H280 H 0.25778 0.88681 0.54424
 H281 H 0.25967 0.86831 0.57947
 H282 H 0.25328 0.80736 0.54653
 H283 H 0.25161 0.82709 0.51180
 C284 C 0.31720 0.91380 0.50323
 C285 C 0.18858 0.91218 0.49748
 C286 C 0.25654 0.83648 0.56553
 C287 C 0.25014 0.83505 0.43716
 C288 C 0.77562 0.59420 0.48090
 H289 H 0.76347 0.59348 0.46840
 C290 C 0.79482 0.58257 0.47866
 H291 H 0.79742 0.57270 0.46449
 C292 C 0.78767 0.60878 0.51416
 H293 H 0.78519 0.61951 0.52764
 C294 C 0.80700 0.59743 0.51257
 H295 H 0.81917 0.59924 0.52498
 N296 N 0.77245 0.60703 0.49843
 C297 C 0.70371 0.62079 0.50301
 H298 H 0.70477 0.63817 0.50405
 C299 C 0.68372 0.61067 0.50455
 H300 H 0.66928 0.62028 0.50668
 C301 C 0.72130 0.58701 0.49922
 H302 H 0.73604 0.57791 0.49740
 C303 C 0.70154 0.57621 0.50069
 H304 H 0.70103 0.55876 0.49983
 Zn305 Zn 0.74780 0.62498 0.49929
 N306 N 0.72195 0.60894 0.50022
 C307 C 0.73207 0.64088 0.45958
 N308 N 0.74838 0.64228 0.47421
 C309 C 0.76618 0.65452 0.47029
 C310 C 0.76807 0.66596 0.45096
 C311 C 0.73331 0.65205 0.44010
 C312 C 0.74570 0.63066 0.54334
 C313 C 0.74520 0.64147 0.56301
 C314 C 0.74935 0.67521 0.54389
 C315 C 0.74978 0.66372 0.52448
 N316 N 0.74816 0.64182 0.52462
 H317 H 0.71835 0.63062 0.46266
 H318 H 0.77911 0.65498 0.48200
 H319 H 0.78241 0.67540 0.44779
 H320 H 0.72041 0.65056 0.42841
 H321 H 0.74415 0.61328 0.54290
 H322 H 0.74335 0.63242 0.57784
 H323 H 0.75072 0.69263 0.54377
 H324 H 0.75128 0.67228 0.50938
 C325 C 0.68260 0.58821 0.50337
 C326 C 0.81071 0.58439 0.49458
 C327 C 0.74707 0.66392 0.56330
 C328 C 0.75152 0.66455 0.43569
 C329 C 0.01644 0.22460 0.09462
 H330 H 0.02945 0.23619 0.09359
 C331 C 0.01789 0.20497 0.08358
 H332 H 0.03196 0.20147 0.07385
 C333 C -0.01735 0.21443 0.10936
 H334 H -0.03076 0.21781 0.11991
 C335 C -0.01655 0.19469 0.09860
 H336 H -0.02948 0.18313 0.10069
 N337 N -0.00098 0.22891 0.10723
 C338 C -0.00334 0.29827 0.11841
 H339 H -0.00481 0.29788 0.13579
 C340 C -0.00371 0.31795 0.10759
 H341 H -0.00542 0.33279 0.11668
 C342 C 0.00059 0.27932 0.08540
 H343 H 0.00206 0.26419 0.07688
 C344 C 0.00029 0.29873 0.07388
 H345 H 0.00169 0.29852 0.05647
 Zn346 Zn -0.00101 0.25424 0.12429
 N347 N -0.00099 0.27951 0.10729
 C348 C 0.03920 0.26934 0.13943
 N349 N 0.02413 0.25352 0.14162
 C350 C 0.02773 0.23608 0.15446
 C351 C 0.04722 0.23403 0.16565
 C352 C 0.05882 0.26793 0.15033
 C353 C -0.04497 0.25820 0.12953
 C354 C -0.06479 0.25917 0.14004
 C355 C -0.04624 0.25456 0.17403
 C356 C -0.02667 0.25369 0.16284
 N357 N -0.02647 0.25526 0.14094
 H358 H 0.03639 0.28275 0.12871
 H359 H 0.01569 0.22350 0.15554
 H360 H 0.05015 0.21993 0.17554
 H361 H 0.07086 0.28042 0.14818
 H362 H -0.04428 0.25962 0.11216
 H363 H -0.07944 0.26128 0.13076
 H364 H -0.04640 0.25311 0.19143
 H365 H -0.01174 0.25172 0.17160
 C366 C -0.00181 0.31822 0.08514
 C367 C 0.00130 0.18984 0.08576
 C368 C -0.06545 0.25723 0.16246
 C369 C 0.06295 0.25005 0.16339
 C370 C 0.01744 0.77568 0.40562
 H371 H 0.02990 0.76349 0.40625
 C372 C 0.01981 0.79484 0.41732
 H373 H 0.03403 0.79736 0.42715
 C374 C -0.01584 0.78787 0.39124
 H375 H -0.02938 0.78546 0.38057
 C376 C -0.01412 0.80718 0.40266
 H377 H -0.02650 0.81939 0.40095
 N378 N -0.00015 0.77260 0.39285
 C379 C -0.00506 0.70378 0.37904
 H380 H -0.00618 0.70483 0.36166
 C381 C -0.00654 0.68377 0.38916
 H382 H -0.00872 0.66932 0.37957
 C383 C -0.00105 0.72139 0.41277
 H384 H 0.00084 0.73614 0.42186
 C385 C -0.00246 0.70161 0.42358
 H386 H -0.00147 0.70112 0.44101
 Zn387 Zn -0.00119 0.74794 0.37484
 N388 N -0.00218 0.72203 0.39086
 C389 C 0.03850 0.73212 0.35896
 N390 N 0.02392 0.74846 0.35752
 C391 C 0.02795 0.76628 0.34534
 C392 C 0.04737 0.76817 0.33405
 C393 C 0.05805 0.73335 0.34793
 C394 C -0.04530 0.74601 0.36924
 C395 C -0.06503 0.74561 0.35850
 C396 C -0.04599 0.74981 0.32472
 C397 C -0.02654 0.75013 0.33617
 N398 N -0.02661 0.74843 0.35805
 H399 H 0.03533 0.71838 0.36917
 H400 H 0.01629 0.77924 0.34484
 H401 H 0.05064 0.78255 0.32468
 H402 H 0.06971 0.72043 0.34948
 H403 H -0.04481 0.74440 0.38661
 H404 H -0.07979 0.74378 0.36769
 H405 H -0.04582 0.75124 0.30730
 H406 H -0.01146 0.75162 0.32758
 C407 C -0.00520 0.68266 0.41161
 C408 C 0.00394 0.81079 0.41565
 C409 C -0.06542 0.74756 0.33604
 C410 C 0.06261 0.75160 0.33553
 C411 C 0.51770 0.27489 0.90543
 H412 H 0.53031 0.26286 0.90630
 C413 C 0.51956 0.29406 0.91719
 H414 H 0.53354 0.29678 0.92730
 C415 C 0.48454 0.28663 0.89039
 H416 H 0.47125 0.28405 0.87946
 C417 C 0.48576 0.30594 0.90186
 H418 H 0.47324 0.31797 0.89992
 N419 N 0.50040 0.27157 0.89232
 C420 C 0.49635 0.20270 0.87875
 H421 H 0.49550 0.20365 0.86136
 C422 C 0.49486 0.18275 0.88897
 H423 H 0.49295 0.16823 0.87944
 C424 C 0.49965 0.22055 0.91245
 H425 H 0.50126 0.23537 0.92148
 C426 C 0.49822 0.20084 0.92335
 H427 H 0.49891 0.20046 0.94080
 Zn428 Zn 0.49993 0.24686 0.87440
 N429 N 0.49889 0.22105 0.89052
 C430 C 0.53995 0.23127 0.85921
 N431 N 0.52529 0.24752 0.85748
 C432 C 0.52937 0.26529 0.84526
 C433 C 0.54891 0.26722 0.83419
 C434 C 0.55962 0.23254 0.84840
 C435 C 0.45598 0.24445 0.86819
 C436 C 0.43639 0.24410 0.85721
 C437 C 0.45577 0.24875 0.82372
 C438 C 0.47510 0.24901 0.83537
 N439 N 0.47478 0.24709 0.85724
 H440 H 0.53673 0.21757 0.86945
 H441 H 0.51764 0.27818 0.84455
 H442 H 0.55221 0.28155 0.82475
 H443 H 0.57132 0.21968 0.85015
 H444 H 0.45627 0.24270 0.88554
 H445 H 0.42149 0.24215 0.86612
 H446 H 0.45602 0.25040 0.80634
 H447 H 0.49026 0.25069 0.82697
 C448 C 0.49582 0.18180 0.91145
 C449 C 0.50349 0.30977 0.91522
 C450 C 0.43626 0.24633 0.83481
 C451 C 0.56421 0.25073 0.83593
 C452 C 0.51772 0.72413 0.59601
 H453 H 0.53045 0.73600 0.59485
 C454 C 0.51955 0.70448 0.58504
 H455 H 0.53363 0.70127 0.57523
 C456 C 0.48427 0.71324 0.61102
 H457 H 0.47086 0.71635 0.62164
 C458 C 0.48546 0.69348 0.60034
 H459 H 0.47281 0.68164 0.60256
 N460 N 0.50028 0.72810 0.60872
 C461 C 0.49657 0.79739 0.62012
 H462 H 0.49523 0.79687 0.63750
 C463 C 0.49561 0.81712 0.60942
 H464 H 0.49361 0.83187 0.61856
 C465 C 0.50068 0.77873 0.58696
 H466 H 0.50244 0.76369 0.57833
 C467 C 0.49980 0.79822 0.57557
 H468 H 0.50105 0.79820 0.55816
 Zn469 Zn 0.49976 0.75343 0.62578
 N470 N 0.49927 0.77876 0.60887
 C471 C 0.53973 0.76921 0.64090
 N472 N 0.52489 0.75318 0.64314
 C473 C 0.52875 0.73583 0.65603
 C474 C 0.54826 0.73410 0.66722
 C475 C 0.55937 0.76813 0.65180
 C476 C 0.45575 0.75654 0.63089
 C477 C 0.43590 0.75739 0.64133
 C478 C 0.45440 0.75344 0.67543
 C479 C 0.47402 0.75267 0.66430
 N480 N 0.47426 0.75399 0.64239
 H481 H 0.53671 0.78255 0.63014
 H482 H 0.51689 0.72308 0.65715
 H483 H 0.55141 0.72008 0.67715
 H484 H 0.57122 0.78078 0.64961
 H485 H 0.45649 0.75780 0.61351
 H486 H 0.42125 0.75924 0.63199
 H487 H 0.45421 0.75223 0.69285
 H488 H 0.48895 0.75102 0.67313
 C489 C 0.49729 0.81756 0.58697
 C490 C 0.50333 0.68898 0.58741
 C491 C 0.43519 0.75576 0.66377
 C492 C 0.56377 0.75034 0.66491
 C493 C 0.90764 0.98232 0.72337
 H494 H 0.90868 0.96925 0.73489
 C495 C 0.91883 0.98138 0.70488
 H496 H 0.92900 0.96759 0.70151
 C497 C 0.89208 1.01632 0.71409
 H498 H 0.88121 1.02952 0.71718
 C499 C 0.90416 1.01603 0.69366
 H500 H 0.90216 1.02925 0.68238
 N501 N 0.89392 1.00052 0.72784
 C502 C 0.88123 1.00550 0.79808
 H503 H 0.86410 1.00868 0.79718
 C504 C 0.89106 1.00478 0.81723
 H505 H 0.88189 1.00746 0.83184
 C506 C 0.91391 0.99818 0.77900
 H507 H 0.92259 0.99533 0.76419
 C508 C 0.92547 0.99724 0.79986
 H509 H 0.94260 0.99377 0.80007
 Zn510 Zn 0.87647 1.00077 0.75305
 N511 N 0.89318 1.00160 0.77859
 C512 C 0.86152 0.96149 0.77032
 N513 N 0.85951 0.97525 0.75332
 C514 C 0.84674 0.97026 0.73616
 C515 C 0.83527 0.95079 0.73578
 C516 C 0.85036 0.94197 0.77059
 C517 C 0.87010 1.04482 0.75625
 C518 C 0.85935 1.06451 0.75510
 C519 C 0.82622 1.04528 0.74787
 C520 C 0.83764 1.02583 0.74917
 N521 N 0.85927 1.02602 0.75292
 H522 H 0.87213 0.96533 0.78355
 H523 H 0.84574 0.98123 0.72263
 H524 H 0.82532 0.94679 0.72199
 H525 H 0.85230 0.93108 0.78411
 H526 H 0.88728 1.04446 0.75929
 H527 H 0.86823 1.07940 0.75738
 H528 H 0.80909 1.04511 0.74449
 H529 H 0.82930 1.01072 0.74680
 C530 C 0.91438 1.00011 0.81822
 C531 C 0.91691 0.99921 0.68912
 C532 C 0.83728 1.06478 0.75064
 C533 C 0.83720 0.93651 0.75316
 C534 C 0.40543 0.48410 0.22221
 H535 H 0.40681 0.47108 0.23375
 C536 C 0.41738 0.48352 0.20306
 H537 H 0.42807 0.47009 0.19986
 C538 C 0.38925 0.51712 0.21172
 H539 H 0.37791 0.52995 0.21475
 C540 C 0.40086 0.51718 0.19249
 H541 H 0.39855 0.53015 0.18101
 N542 N 0.39176 0.50081 0.22621
 C543 C 0.37983 0.50521 0.29543
 H544 H 0.36253 0.50728 0.29471
 C545 C 0.39030 0.50519 0.31531
 H546 H 0.38107 0.50733 0.32998
 C547 C 0.41295 0.49951 0.27717
 H548 H 0.42167 0.49728 0.26227
 C549 C 0.42410 0.49936 0.29682
 H550 H 0.44139 0.49697 0.29702
 Zn551 Zn 0.37438 0.50079 0.25143
 N552 N 0.39115 0.50202 0.27692
 C553 C 0.36026 0.46109 0.26854
 N554 N 0.35778 0.47502 0.25174
 C555 C 0.34475 0.47008 0.23476
 C556 C 0.33344 0.45052 0.23440
 C557 C 0.34927 0.44147 0.26882
 C558 C 0.36765 0.54469 0.25433
 C559 C 0.35675 0.56430 0.25327
 C560 C 0.32363 0.54480 0.24668
 C561 C 0.33520 0.52544 0.24789
 N562 N 0.35689 0.52580 0.25128
 H563 H 0.37111 0.46487 0.28160
 H564 H 0.34339 0.48118 0.22138
 H565 H 0.32324 0.44658 0.22077
 H566 H 0.35155 0.43046 0.28219
 H567 H 0.38487 0.54447 0.25710
 H568 H 0.36556 0.57925 0.25533
 H569 H 0.30644 0.54451 0.24361
 H570 H 0.32693 0.51025 0.24577
 C571 C 0.41258 0.50201 0.31605
 C572 C 0.41499 0.50024 0.18806
 C573 C 0.33460 0.56439 0.24918
 C574 C 0.33580 0.43609 0.25161
 C575 C 0.59452 0.98404 0.27844
 H576 H 0.59289 0.97068 0.26733
 C577 C 0.58383 0.98388 0.29722
 H578 H 0.57347 0.97040 0.30127
 C579 C 0.61104 1.01796 0.28630
 H580 H 0.62201 1.03089 0.28246
 C581 C 0.59956 1.01850 0.30706
 H582 H 0.60210 1.03202 0.31787
 N583 N 0.60840 1.00186 0.27303
 C584 C 0.61629 1.00453 0.20324
 H585 H 0.63355 1.00701 0.20279
 C586 C 0.60460 1.00355 0.18408
 H587 H 0.61284 1.00539 0.16879
 C588 C 0.58453 0.99867 0.22372
 H589 H 0.57682 0.99672 0.23920
 C590 C 0.57218 0.99754 0.20485
 H591 H 0.55498 0.99470 0.20582
 Zn592 Zn 0.62448 1.00129 0.24700
 N593 N 0.60624 1.00169 0.22252
 C594 C 0.63820 0.96139 0.23001
 N595 N 0.64116 0.97561 0.24649
 C596 C 0.65486 0.97109 0.26304
 C597 C 0.66644 0.95170 0.26326
 C598 C 0.64943 0.94192 0.22959
 C599 C 0.63130 1.04521 0.24258
 C600 C 0.64239 1.06475 0.24302
 C601 C 0.67556 1.04508 0.24883
 C602 C 0.66379 1.02581 0.24825
 N603 N 0.64200 1.02629 0.24561
 H604 H 0.62685 0.96484 0.21730
 H605 H 0.65659 0.98243 0.27620
 H606 H 0.67720 0.94812 0.27654
 H607 H 0.64681 0.93067 0.21648
 H608 H 0.61399 1.04508 0.24043
 H609 H 0.63358 1.07973 0.24108
 H610 H 0.69283 1.04464 0.25142
 H611 H 0.67201 1.01061 0.25037
 C612 C 0.58241 0.99976 0.18486
 C613 C 0.58652 1.00214 0.31237
 C614 C 0.66467 1.06474 0.24647
 C615 C 0.66364 0.93700 0.24635
 C616 C 0.09469 0.48501 0.77801
 H617 H 0.09249 0.47155 0.76712
 C618 C 0.08379 0.48544 0.79778
 H619 H 0.07308 0.47234 0.80211
 C620 C 0.11182 0.51823 0.78617
 H621 H 0.12310 0.53078 0.78197
 C622 C 0.10129 0.51928 0.80598
 H623 H 0.10435 0.53272 0.81673
 N624 N 0.10828 0.50137 0.77253
 C625 C 0.11562 0.50338 0.70259
 H626 H 0.13292 0.50558 0.70209
 C627 C 0.10388 0.50256 0.68345
 H628 H 0.11213 0.50424 0.66814
 C629 C 0.08381 0.49810 0.72315
 H630 H 0.07610 0.49633 0.73865
 C631 C 0.07141 0.49715 0.70429
 H632 H 0.05416 0.49461 0.70530
 Zn633 Zn 0.12399 0.50027 0.74626
 N634 N 0.10557 0.50076 0.72190
 C635 C 0.13720 0.46015 0.72935
 N636 N 0.14041 0.47442 0.74575
 C637 C 0.15434 0.46992 0.76212
 C638 C 0.16596 0.45056 0.76217
 C639 C 0.14846 0.44071 0.72878
 C640 C 0.13124 0.54403 0.74148
 C641 C 0.14249 0.56348 0.74195
 C642 C 0.17548 0.54355 0.74779
 C643 C 0.16357 0.52437 0.74718
 N644 N 0.14178 0.52503 0.74454
 H645 H 0.12566 0.46360 0.71680
 H646 H 0.15627 0.48129 0.77522
 H647 H 0.17695 0.44702 0.77528
 H648 H 0.14567 0.42945 0.71571
 H649 H 0.11393 0.54406 0.73937
 H650 H 0.13386 0.57855 0.74006
 H651 H 0.19273 0.54302 0.75044
 H652 H 0.17166 0.50911 0.74933
 C653 C 0.08163 0.49916 0.68427
 C654 C 0.08717 0.50277 0.81187
 C655 C 0.16474 0.56327 0.74546
 C656 C 0.16296 0.43585 0.74530
 C657 C 0.77808 0.90629 0.01553
 H658 H 0.76652 0.90779 0.02850
 C659 C 0.79730 0.91816 0.01611
 H660 H 0.80052 0.92893 0.02949
 C661 C 0.78858 0.88987 -0.01736
 H662 H 0.78553 0.87847 -0.03013
 C663 C 0.80787 0.90140 -0.01741
 H664 H 0.81937 0.89896 -0.03033
 N665 N 0.77405 0.89254 -0.00111
 C666 C 0.70485 0.88062 -0.00599
 H667 H 0.70564 0.86334 -0.00827
 C668 C 0.68494 0.89099 -0.00590
 H669 H 0.67031 0.88171 -0.00820
 C670 C 0.72297 0.91376 0.00025
 H671 H 0.73783 0.92251 0.00271
 C672 C 0.70328 0.92481 0.00049
 H673 H 0.70300 0.94207 0.00318
 Zn674 Zn 0.74877 0.87522 -0.00114
 N675 N 0.72331 0.89198 -0.00255
 C676 C 0.73130 0.86121 0.03838
 N677 N 0.74824 0.85869 0.02464
 C678 C 0.76511 0.84560 0.02976
 C679 C 0.76519 0.83424 0.04927
 C680 C 0.73074 0.85018 0.05794
 C681 C 0.74604 0.86824 -0.04499
 C682 C 0.74721 0.85722 -0.06453
 C683 C 0.75370 0.82421 -0.04482
 C684 C 0.75237 0.83589 -0.02555
 N685 N 0.74899 0.85759 -0.02605
 H686 H 0.71832 0.87210 0.03447
 H687 H 0.77861 0.84422 0.01880
 H688 H 0.77873 0.82398 0.05334
 H689 H 0.71725 0.85247 0.06880
 H690 H 0.74327 0.88547 -0.04488
 H691 H 0.74524 0.86595 -0.07953
 H692 H 0.75678 0.80702 -0.04442
 H693 H 0.75441 0.82770 -0.01031
 C694 C 0.68410 0.91322 -0.00237
 C695 C 0.81233 0.91561 -0.00053
 C696 C 0.75132 0.83508 -0.06447
 C697 C 0.74782 0.83661 0.06349
 C698 C 0.27623 0.40528 0.51537
 H699 H 0.26452 0.40641 0.52824
 C700 C 0.29535 0.41728 0.51642
 H701 H 0.29834 0.42777 0.53007
 C702 C 0.28718 0.38970 0.48222
 H703 H 0.28432 0.37859 0.46915
 C704 C 0.30639 0.40137 0.48264
 H705 H 0.31803 0.39933 0.46978
 N706 N 0.27247 0.39190 0.49836
 C707 C 0.20330 0.38023 0.49262
 H708 H 0.20396 0.36297 0.49014
 C709 C 0.18345 0.39076 0.49276
 H710 H 0.16876 0.38161 0.49029
 C711 C 0.22161 0.41316 0.49935
 H712 H 0.23652 0.42178 0.50198
 C713 C 0.20201 0.42435 0.49965
 H714 H 0.20185 0.44158 0.50255
 Zn715 Zn 0.24722 0.37454 0.49775
 N716 N 0.22182 0.39141 0.49630
 C717 C 0.22938 0.36014 0.53700
 N718 N 0.24642 0.35774 0.52337
 C719 C 0.26333 0.34472 0.52857
 C720 C 0.26338 0.33338 0.54811
 C721 C 0.22878 0.34912 0.55658
 C722 C 0.24506 0.36804 0.45372
 C723 C 0.24633 0.35718 0.43409
 C724 C 0.25239 0.32395 0.45356
 C725 C 0.25098 0.33548 0.47293
 N726 N 0.24774 0.35720 0.47260
 H727 H 0.21637 0.37097 0.53302
 H728 H 0.27691 0.34343 0.51771
 H729 H 0.27696 0.32323 0.55227
 H730 H 0.21523 0.35136 0.56737
 H731 H 0.24239 0.38528 0.45396
 H732 H 0.24453 0.36605 0.41914
 H733 H 0.25531 0.30673 0.45384
 H734 H 0.25280 0.32714 0.48811
 C735 C 0.18276 0.41295 0.49658
 C736 C 0.31056 0.41524 0.49988
 C737 C 0.25024 0.33500 0.43398
 C738 C 0.24594 0.33569 0.56225
 C739 C 0.22217 0.59403 0.01567
 H740 H 0.23299 0.59209 0.02922
 C741 C 0.20246 0.58299 0.01528
 H742 H 0.19816 0.57243 0.02852
 C743 C 0.21407 0.61071 -0.01777
 H744 H 0.21826 0.62189 -0.03041
 C745 C 0.19432 0.60003 -0.01880
 H746 H 0.18365 0.60291 -0.03235
 N747 N 0.22763 0.60749 -0.00079
 C748 C 0.29749 0.61597 -0.00227
 H749 H 0.29773 0.63326 -0.00460
 C750 C 0.31680 0.60455 -0.00121
 H751 H 0.33199 0.61304 -0.00283
 C752 C 0.27739 0.58385 0.00309
 H753 H 0.26199 0.57589 0.00480
 C754 C 0.29643 0.57177 0.00428
 H755 H 0.29567 0.55451 0.00693
 Zn756 Zn 0.25366 0.62362 0.00045
 N757 N 0.27832 0.60561 0.00026
 C758 C 0.27001 0.63729 0.04064
 N759 N 0.25368 0.64015 0.02623
 C760 C 0.23701 0.65376 0.03056
 C761 C 0.23656 0.66539 0.04991
 C762 C 0.27018 0.64857 0.06008
 C763 C 0.25867 0.63084 -0.04329
 C764 C 0.25822 0.64205 -0.06275
 C765 C 0.25172 0.67499 -0.04294
 C766 C 0.25233 0.66312 -0.02375
 N767 N 0.25529 0.64137 -0.02435
 H768 H 0.28281 0.62600 0.03733
 H769 H 0.22398 0.65541 0.01907
 H770 H 0.22320 0.67611 0.05332
 H771 H 0.28321 0.64605 0.07146
 H772 H 0.26105 0.61355 -0.04327
 H773 H 0.26037 0.63341 -0.07779
 H774 H 0.24882 0.69221 -0.04246
 H775 H 0.24993 0.67122 -0.00852
 C776 C 0.31630 0.58231 0.00235
 C777 C 0.18840 0.58608 -0.00214
 C778 C 0.25439 0.66426 -0.06261
 C779 C 0.25334 0.66273 0.06478
 C780 C 0.72284 0.09573 0.51666
 H781 H 0.73394 0.09407 0.53002
 C782 C 0.70325 0.08448 0.51679
 H783 H 0.69928 0.07405 0.53022
 C784 C 0.71397 0.11182 0.48312
 H785 H 0.71785 0.12282 0.47022
 C786 C 0.69433 0.10091 0.48262
 H787 H 0.68336 0.10342 0.46925
 N788 N 0.72788 0.10896 0.49988
 C789 C 0.79771 0.11679 0.49696
 H790 H 0.79819 0.13408 0.49465
 C791 C 0.81685 0.10505 0.49775
 H792 H 0.83215 0.11329 0.49594
 C793 C 0.77717 0.08498 0.50256
 H794 H 0.76168 0.07726 0.50445
 C795 C 0.79602 0.07259 0.50348
 H796 H 0.79501 0.05535 0.50612
 Zn797 Zn 0.75395 0.12501 0.50034
 N798 N 0.77841 0.10674 0.49977
 C799 C 0.77114 0.13873 0.54020
 N800 N 0.75461 0.14169 0.52603
 C801 C 0.73807 0.15537 0.53063
 C802 C 0.73790 0.16689 0.55006
 C803 C 0.77160 0.14990 0.55970
 C804 C 0.75803 0.13178 0.45642
 C805 C 0.75738 0.14284 0.43686
 C806 C 0.75165 0.17602 0.45651
 C807 C 0.75244 0.16431 0.47579
 N808 N 0.75515 0.14251 0.47533
 H809 H 0.78383 0.12738 0.53667
 H810 H 0.72488 0.15711 0.51934
 H811 H 0.72462 0.17761 0.55371
 H812 H 0.78474 0.14725 0.57091
 H813 H 0.76022 0.11447 0.45655
 H814 H 0.75919 0.13405 0.42187
 H815 H 0.74901 0.19329 0.45689
 H816 H 0.75042 0.17256 0.49099
 C817 C 0.81602 0.08281 0.50130
 C818 C 0.68890 0.08715 0.49957
 C819 C 0.75387 0.16510 0.43688
 C820 C 0.75484 0.16406 0.56472
 C821 C 0.98415 0.72221 0.90672
 H822 H 0.97063 0.73307 0.90860
 C823 C 0.98443 0.70331 0.91725
 H824 H 0.97116 0.69893 0.92771
 C825 C 1.01798 0.71508 0.88978
 H826 H 1.03070 0.71921 0.87869
 C827 C 1.01901 0.69423 0.90107
 H828 H 1.03266 0.68367 0.89827
 N829 N 1.00169 0.72805 0.89268
 C830 C 1.00367 0.79900 0.88376
 H831 H 1.00641 0.79920 0.86653
 C832 C 1.00257 0.81751 0.89470
 H833 H 1.00449 0.83272 0.88631
 C834 C 0.99796 0.77782 0.91546
 H835 H 0.99593 0.76243 0.92336
 C836 C 0.99663 0.79794 0.92824
 H837 H 0.99368 0.79704 0.94544
 Zn838 Zn 1.00055 0.75412 0.87658
 N839 N 1.00080 0.77873 0.89466
 C840 C 0.96056 0.77080 0.86285
 N841 N 0.97478 0.75430 0.86004
 C842 C 0.97026 0.73764 0.84647
 C843 C 0.95091 0.73736 0.83483
 C844 C 0.94113 0.77115 0.85156
 C845 C 1.04428 0.75933 0.86939
 C846 C 1.06375 0.75881 0.85822
 C847 C 1.04399 0.75192 0.82533
 C848 C 1.02478 0.75260 0.83715
 N849 N 1.02535 0.75579 0.85887
 H850 H 0.96404 0.78362 0.87410
 H851 H 0.98160 0.72448 0.84484
 H852 H 0.94735 0.72401 0.82414
 H853 H 0.92991 0.78431 0.85404
 H854 H 1.04423 0.76186 0.88665
 H855 H 1.07877 0.76108 0.86686
 H856 H 1.04354 0.74882 0.80814
 H857 H 1.00957 0.75005 0.82906
 C858 C 0.99855 0.81699 0.91815
 C859 C 1.00289 0.68849 0.91421
 C860 C 1.06364 0.75474 0.83607
 C861 C 0.93624 0.75431 0.83744
 C862 C 0.48338 0.22281 0.40434
 H863 H 0.47000 0.23388 0.40601
 C864 C 0.48333 0.20324 0.41560
 H865 H 0.46995 0.19923 0.42606
 C866 C 0.51689 0.21403 0.38818
 H867 H 0.52974 0.21793 0.37715
 C868 C 0.51748 0.19440 0.39910
 H869 H 0.53087 0.18346 0.39657
 N870 N 0.50011 0.22789 0.39107
 C871 C 0.50284 0.29771 0.38313
 H872 H 0.50513 0.29815 0.36584
 C873 C 0.50206 0.31690 0.39481
 H874 H 0.50385 0.33218 0.38653
 C875 C 0.49731 0.27726 0.41499
 H876 H 0.49545 0.26178 0.42275
 C877 C 0.49640 0.29615 0.42732
 H878 H 0.49380 0.29520 0.44456
 Zn879 Zn 0.49957 0.25395 0.37502
 N880 N 0.50007 0.27844 0.39323
 C881 C 0.45972 0.27098 0.36119
 N882 N 0.47394 0.25450 0.35828
 C883 C 0.46945 0.23795 0.34455
 C884 C 0.45011 0.23774 0.33291
 C885 C 0.44030 0.27140 0.34989
 C886 C 0.54347 0.25819 0.36836
 C887 C 0.56303 0.25762 0.35735
 C888 C 0.54346 0.25188 0.32412
 C889 C 0.52416 0.25258 0.33579
 N890 N 0.52458 0.25524 0.35758
 H891 H 0.46315 0.28368 0.37257
 H892 H 0.48078 0.22479 0.34287
 H893 H 0.44655 0.22446 0.32213
 H894 H 0.42905 0.28452 0.35248
 H895 H 0.54330 0.26035 0.38567
 H896 H 0.57801 0.25947 0.36617
 H897 H 0.54312 0.24926 0.30686
 H898 H 0.50898 0.25053 0.32750
 C899 C 0.49856 0.31613 0.41704
 C900 C 0.50058 0.18893 0.41291
 C901 C 0.56306 0.25414 0.33510
 C902 C 0.43541 0.25465 0.33566
 C903 C 0.98323 0.27718 0.59410
 H904 H 0.97036 0.26545 0.59291
 C905 C 0.98221 0.29633 0.58216
 H906 H 0.96856 0.29929 0.57165
 C907 C 1.01634 0.28812 0.60981
 H908 H 1.02937 0.28526 0.62097
 C909 C 1.01597 0.30737 0.59821
 H910 H 1.02885 0.31899 0.60037
 N911 N 1.00020 0.27340 0.60753
 C912 C 1.00564 0.20418 0.61945
 H913 H 1.00805 0.20496 0.63671
 C914 C 1.00562 0.18427 0.60903
 H915 H 1.00810 0.16964 0.61826
 C916 C 0.99908 0.22231 0.58640
 H917 H 0.99651 0.23718 0.57769
 C918 C 0.99892 0.20263 0.57531
 H919 H 0.99616 0.20237 0.55806
 Zn920 Zn 1.00077 0.24815 0.62492
 N921 N 1.00202 0.22265 0.60816
 C922 C 0.96155 0.23052 0.63971
 N923 N 0.97531 0.24751 0.64193
 C924 C 0.97040 0.26443 0.65504
 C925 C 0.95107 0.26454 0.66670
 C926 C 0.94216 0.22999 0.65105
 C927 C 1.04482 0.24590 0.63110
 C928 C 1.06453 0.24700 0.64182
 C929 C 1.04532 0.25289 0.67523
 C930 C 1.02587 0.25166 0.66381
 N931 N 1.02603 0.24857 0.64208
 H932 H 0.96530 0.21750 0.62880
 H933 H 0.98136 0.27796 0.65619
 H934 H 0.94715 0.27813 0.67694
 H935 H 0.93128 0.21647 0.64896
 H936 H 1.04443 0.24333 0.61385
 H937 H 1.07937 0.24517 0.63279
 H938 H 1.04512 0.25567 0.69248
 H939 H 1.01075 0.25346 0.67227
 C940 C 1.00199 0.18345 0.58682
 C941 C 0.99875 0.31159 0.58430
 C942 C 1.06482 0.25074 0.66405
 C943 C 0.93682 0.24714 0.66460
 C944 C 0.48242 0.77581 0.09532
 H945 H 0.46935 0.76429 0.09433
 C946 C 0.48152 0.79497 0.08337
 H947 H 0.46780 0.79818 0.07305
 C948 C 0.51590 0.78628 0.11055
 H949 H 0.52905 0.78323 0.12152
 C950 C 0.51565 0.80551 0.09892
 H951 H 0.52870 0.81697 0.10085
 N952 N 0.49950 0.77179 0.10853
 C953 C 0.50455 0.70254 0.12053
 H954 H 0.50736 0.70332 0.13773
 C955 C 0.50401 0.68260 0.11017
 H956 H 0.50652 0.66796 0.11937
 C957 C 0.49739 0.72067 0.08761
 H958 H 0.49473 0.73554 0.07893
 C959 C 0.49669 0.70097 0.07658
 H960 H 0.49348 0.70070 0.05941
 Zn961 Zn 0.49994 0.74659 0.12600
 N962 N 0.50087 0.72102 0.10928
 C963 C 0.46068 0.72921 0.14092
 N964 N 0.47447 0.74618 0.14305
 C965 C 0.46951 0.76326 0.15595
 C966 C 0.45006 0.76356 0.16743
 C967 C 0.44118 0.72887 0.15208
 C968 C 0.54401 0.74381 0.13207
 C969 C 0.56379 0.74521 0.14265
 C970 C 0.54483 0.75232 0.17593
 C971 C 0.52529 0.75076 0.16469
 N972 N 0.52529 0.74696 0.14306
 H973 H 0.46445 0.71606 0.13018
 H974 H 0.48049 0.77678 0.15702
 H975 H 0.44610 0.77729 0.17747
 H976 H 0.43027 0.71537 0.15004
 H977 H 0.54352 0.74074 0.11491
 H978 H 0.57860 0.74309 0.13364
 H979 H 0.54480 0.75574 0.19305
 H980 H 0.51024 0.75299 0.17316
 C981 C 0.49978 0.68177 0.08806
 C982 C 0.49831 0.80996 0.08527
 C983 C 0.56424 0.74975 0.16470
 C984 C 0.43576 0.74620 0.16538
 O985 O 0.04651 1.04303 0.99885
 O986 O 0.03003 1.04618 0.96551
 O987 O -0.00574 1.05049 1.04381
 O988 O -0.03694 1.03429 1.05122
 O989 O 0.03999 0.99825 1.05152
 O990 O 0.04449 0.96435 1.03427
 O991 O -0.06253 0.99109 0.98980
 O992 O -0.06326 1.02602 1.00132
 O993 O -0.01307 0.98709 0.94321
 O994 O 0.02483 0.99666 0.94220
 O995 O -0.01561 0.94091 0.99318
 O996 O -0.00623 0.94043 1.03068
 O997 O -0.04966 0.96140 1.00705
 O998 O -0.03092 0.95702 1.04279
 O999 O 0.00117 0.95335 0.96315
 O1000 O 0.03678 0.97160 0.95838
 O1001 O -0.04309 1.00366 0.95600
 O1002 O -0.04296 1.04044 0.97182
 O1003 O 0.05953 1.01311 1.01566
 O1004 O 0.05948 0.97539 1.00638
 O1005 O 0.01033 1.01545 1.06435
 O1006 O -0.02776 1.00369 1.06378
 O1007 O 0.01196 1.06274 1.01418
 O1008 O -0.00153 1.06121 0.97671
 Zr1009 Zr 0.01382 1.03575 0.99370
 O1010 O -0.00551 1.01666 0.97336
 Zr1011 Zr -0.01059 1.01746 1.03769
 O1012 O -0.03140 0.99814 1.01907
 Zr1013 Zr 0.03275 0.99242 1.01890
 O1014 O 0.01383 0.97154 0.99993
 Zr1015 Zr -0.03542 1.01130 0.98816
 O1016 O -0.01691 1.03228 1.00779
 Zr1017 Zr 0.00795 0.98586 0.96982
 O1018 O 0.02880 1.00579 0.98802
 Zr1019 Zr -0.01695 0.96799 1.01364
 O1020 O 0.00308 0.98657 1.03426
 O1021 O 0.01949 1.02271 1.02408
 O1022 O -0.02250 0.98064 0.98302
 C1023 C 0.06191 1.03193 1.00723
 C1024 C 0.00331 1.06556 1.03279
 C1025 C 0.02913 1.00709 1.06680
 C1026 C -0.06492 0.97222 0.99806
 C1027 C -0.03216 0.99475 0.94081
 C1028 C -0.00775 0.93828 0.97420
 H1029 H -0.00726 1.02409 0.95936
 H1030 H 0.02136 0.95756 0.99856
 H1031 H 0.02878 1.03204 1.03313
 H1032 H -0.04540 0.99685 1.02657
 H1033 H -0.05846 1.03973 1.00798
 H1034 H -0.04965 1.03092 1.04223
 H1035 H 0.04027 0.95928 0.96788
 H1036 H 0.06195 0.98100 0.99165
 H1037 H -0.05718 1.03863 0.96472
 H1038 H 0.00720 1.07454 0.97829
 H1039 H 0.00854 0.93713 1.02566
 H1040 H 0.03288 0.95931 1.04399
 H1041 H 0.03892 1.03391 0.96048
 H1042 H 0.01889 1.01090 0.93813
 H1043 H -0.02029 0.99012 1.06763
 H1044 H -0.04346 0.96633 1.04601
 O1045 O 0.43538 0.49121 0.49025
 O1046 O 0.43487 0.52679 0.50084
 O1047 O 0.48581 0.48933 0.44214
 O1048 O 0.52085 0.49578 0.44016
 O1049 O 0.48360 0.44079 0.49311
 O1050 O 0.49346 0.44117 0.53001
 O1051 O 0.54403 0.54411 0.49872
 O1052 O 0.52840 0.54644 0.46522
 O1053 O 0.49432 0.55030 0.54409
 O1054 O 0.45942 0.53263 0.54972
 O1055 O 0.53853 0.49987 0.55039
 O1056 O 0.54394 0.46528 0.53324
 O1057 O 0.55703 0.51448 0.51600
 O1058 O 0.55730 0.47530 0.50574
 O1059 O 0.50878 0.51661 0.56353
 O1060 O 0.47007 0.50581 0.56403
 O1061 O 0.51157 0.56268 0.51428
 O1062 O 0.49527 0.56207 0.47773
 O1063 O 0.44830 0.46179 0.50797
 O1064 O 0.46661 0.45729 0.54189
 O1065 O 0.50008 0.45346 0.46298
 O1066 O 0.53534 0.47191 0.45963
 O1067 O 0.45562 0.50550 0.45508
 O1068 O 0.45382 0.54113 0.47301
 Zr1069 Zr 0.46248 0.51149 0.48782
 O1070 O 0.48118 0.53216 0.50726
 Zr1071 Zr 0.50590 0.48626 0.46925
 O1072 O 0.52638 0.50633 0.48735
 Zr1073 Zr 0.48129 0.46816 0.51311
 O1074 O 0.50112 0.48699 0.53330
 Zr1075 Zr 0.51162 0.53621 0.49313
 O1076 O 0.49225 0.51718 0.47244
 Zr1077 Zr 0.48745 0.51774 0.53719
 O1078 O 0.46646 0.49809 0.51879
 Zr1079 Zr 0.53082 0.49293 0.51812
 O1080 O 0.51203 0.47153 0.49918
 O1081 O 0.47572 0.48107 0.48272
 O1082 O 0.51764 0.52331 0.52361
 C1083 C 0.43293 0.47264 0.49919
 C1084 C 0.46687 0.49737 0.43969
 C1085 C 0.49180 0.43818 0.47426
 C1086 C 0.55931 0.53340 0.50777
 C1087 C 0.50377 0.56526 0.53328
 C1088 C 0.52789 0.50894 0.56567
 H1089 H 0.47370 0.54616 0.50883
 H1090 H 0.50297 0.47948 0.54723
 H1091 H 0.46645 0.47179 0.47360
 H1092 H 0.54013 0.50818 0.47951
 H1093 H 0.51901 0.54305 0.45275
 H1094 H 0.52882 0.50922 0.44330
 H1095 H 0.47741 0.49260 0.56913
 H1096 H 0.45671 0.46889 0.54660
 H1097 H 0.50478 0.57493 0.47818
 H1098 H 0.44033 0.53903 0.46465
 H1099 H 0.53336 0.46018 0.54401
 H1100 H 0.50843 0.43904 0.52493
 H1101 H 0.43389 0.52228 0.51612
 H1102 H 0.45489 0.54396 0.53944
 H1103 H 0.53863 0.46043 0.47024
 H1104 H 0.56244 0.48277 0.49262
 O1105 O 0.51505 0.06347 0.48687
 O1106 O 0.50407 0.06425 0.52224
 O1107 O 0.56335 0.01303 0.48619
 O1108 O 0.56521 -0.02201 0.49287
 O1109 O 0.51304 0.01472 0.43681
 O1110 O 0.47616 0.00492 0.43667
 O1111 O 0.50568 -0.04474 0.54048
 O1112 O 0.53924 -0.02934 0.54312
 O1113 O 0.46055 0.00527 0.54553
 O1114 O 0.45515 0.03993 0.52739
 O1115 O 0.45475 -0.03947 0.49521
 O1116 O 0.47279 -0.04514 0.46088
 O1117 O 0.48882 -0.05796 0.51070
 O1118 O 0.49966 -0.05887 0.47194
 O1119 O 0.44152 -0.00959 0.51167
 O1120 O 0.44118 0.02898 0.50056
 O1121 O 0.49018 -0.01184 0.55857
 O1122 O 0.52683 0.00411 0.55820
 O1123 O 0.49779 0.05028 0.45728
 O1124 O 0.46409 0.03191 0.45226
 O1125 O 0.54299 -0.00174 0.44994
 O1126 O 0.54611 -0.03672 0.46883
 O1127 O 0.55007 0.04337 0.50184
 O1128 O 0.53171 0.04540 0.53711
 Zr1129 Zr 0.51730 0.03651 0.50733
 O1130 O 0.49757 0.01802 0.52784
 Zr1131 Zr 0.53628 -0.00713 0.48274
 O1132 O 0.51781 -0.02743 0.50268
 Zr1133 Zr 0.49267 0.01733 0.46380
 O1134 O 0.47217 -0.00228 0.48246
 Zr1135 Zr 0.51160 -0.01243 0.53235
 O1136 O 0.53259 0.00677 0.51350
 Zr1137 Zr 0.46786 0.01169 0.51301
 O1138 O 0.48655 0.03247 0.49348
 Zr1139 Zr 0.48722 -0.03196 0.48887
 O1140 O 0.50653 -0.01339 0.46766
 O1141 O 0.52288 0.02302 0.47710
 O1142 O 0.48128 -0.01850 0.51905
 C1143 C 0.50629 0.06577 0.46820
 C1144 C 0.56562 0.03205 0.49415
 C1145 C 0.53187 0.00639 0.43446
 C1146 C 0.49670 -0.06008 0.52978
 C1147 C 0.47119 -0.00390 0.56078
 C1148 C 0.43939 -0.02871 0.50399
 H1149 H 0.49583 0.02565 0.54173
 H1150 H 0.45835 -0.00416 0.47474
 H1151 H 0.53212 0.03223 0.46788
 H1152 H 0.52558 -0.04120 0.50480
 H1153 H 0.55182 -0.02008 0.53982
 H1154 H 0.56183 -0.02997 0.50625
 H1155 H 0.43629 0.02155 0.48731
 H1156 H 0.45909 0.04183 0.46373
 H1157 H 0.52619 -0.00526 0.57115
 H1158 H 0.54005 0.05892 0.53506
 H1159 H 0.46177 -0.03480 0.45579
 H1160 H 0.48127 -0.01008 0.43473
 H1161 H 0.48888 0.06525 0.51747
 H1162 H 0.46524 0.04454 0.53885
 H1163 H 0.53554 -0.04024 0.45739
 H1164 H 0.51286 -0.06372 0.47947
 O1165 O -0.04533 0.46116 0.99464
 O1166 O -0.02909 0.45764 0.96122
 O1167 O 0.00725 0.45487 1.03940
 O1168 O 0.03821 0.47146 1.04665
 O1169 O -0.03885 0.50709 1.04637
 O1170 O -0.04370 0.54057 1.02839
 O1171 O 0.06342 0.51348 0.98445
 O1172 O 0.06431 0.47881 0.99650
 O1173 O 0.01386 0.51640 0.93773
 O1174 O -0.02396 0.50672 0.93688
 O1175 O 0.01609 0.56355 0.98694
 O1176 O 0.00705 0.56473 1.02431
 O1177 O 0.05045 0.54345 1.00114
 O1178 O 0.03168 0.54840 1.03679
 O1179 O -0.00086 0.55063 0.95719
 O1180 O -0.03612 0.53187 0.95264
 O1181 O 0.04395 0.50017 0.95083
 O1182 O 0.04398 0.46376 0.96732
 O1183 O -0.05845 0.49130 1.01095
 O1184 O -0.05871 0.52881 1.00078
 O1185 O -0.00911 0.49017 1.05941
 O1186 O 0.02890 0.50219 1.05856
 O1187 O -0.01047 0.44196 1.01003
 O1188 O 0.00262 0.44294 0.97246
 Zr1189 Zr -0.01273 0.46860 0.98914
 O1190 O 0.00645 0.48742 0.96845
 Zr1191 Zr 0.01174 0.48783 1.03276
 O1192 O 0.03238 0.50689 1.01377
 Zr1193 Zr -0.03180 0.51225 1.01361
 O1194 O -0.01304 0.53287 0.99423
 Zr1195 Zr 0.03638 0.49318 0.98311
 O1196 O 0.01802 0.47248 1.00312
 Zr1197 Zr -0.00715 0.51810 0.96434
 O1198 O -0.02787 0.49838 0.98294
 Zr1199 Zr 0.01776 0.53685 1.00782
 O1200 O -0.00212 0.51856 1.02880
 O1201 O -0.01836 0.48214 1.01932
 O1202 O 0.02332 0.52371 0.97740
 C1203 C -0.06075 0.47227 1.00294
 C1204 C -0.00168 0.43953 1.02864
 C1205 C -0.02791 0.49854 1.06177
 C1206 C 0.06577 0.53248 0.99244
 C1207 C 0.03296 0.50868 0.93547
 C1208 C 0.00795 0.56593 0.96804
 H1209 H 0.00820 0.47973 0.95459
 H1210 H -0.02067 0.54677 0.99265
 H1211 H -0.02751 0.47290 1.02857
 H1212 H 0.04639 0.50838 1.02125
 H1213 H 0.05959 0.46522 1.00342
 H1214 H 0.05086 0.47460 1.03750
 H1215 H -0.03987 0.54414 0.96212
 H1216 H -0.06126 0.52277 0.98622
 H1217 H 0.05819 0.46545 0.96020
 H1218 H -0.00604 0.42960 0.97430
 H1219 H -0.00786 0.56770 1.01949
 H1220 H -0.03212 0.54586 1.03804
 H1221 H -0.03810 0.46977 0.95606
 H1222 H -0.01812 0.49234 0.93322
 H1223 H 0.02131 0.51575 1.06223
 H1224 H 0.04431 0.53926 1.04015
 O1225 O 0.00859 0.43547 0.50913
 O1226 O -0.00202 0.43492 0.47358
 O1227 O 0.05673 0.48600 0.51094
 O1228 O 0.05868 0.52107 0.50459
 O1229 O 0.00572 0.48379 0.55951
 O1230 O -0.03117 0.49360 0.55909
 O1231 O 0.00012 0.54411 0.45616
 O1232 O 0.03363 0.52852 0.45389
 O1233 O -0.04522 0.49430 0.44999
 O1234 O -0.05082 0.45937 0.46769
 O1235 O -0.05158 0.53858 0.50036
 O1236 O -0.03439 0.54407 0.53495
 O1237 O -0.01718 0.55714 0.48574
 O1238 O -0.00693 0.55749 0.52490
 O1239 O -0.06467 0.50877 0.48362
 O1240 O -0.06518 0.47009 0.49444
 O1241 O -0.01542 0.51159 0.43762
 O1242 O 0.02114 0.49534 0.43829
 O1243 O -0.00914 0.44841 0.53853
 O1244 O -0.04304 0.46672 0.54299
 O1245 O 0.03586 0.50028 0.54686
 O1246 O 0.03920 0.53554 0.52839
 O1247 O 0.04375 0.45575 0.49482
 O1248 O 0.02584 0.45387 0.45924
 Zr1249 Zr 0.01103 0.46257 0.48885
 O1250 O -0.00840 0.48123 0.46815
 Zr1251 Zr 0.02960 0.50606 0.51406
 O1252 O 0.01150 0.52651 0.49396
 Zr1253 Zr -0.01426 0.48141 0.53214
 O1254 O -0.03445 0.50120 0.51328
 Zr1255 Zr 0.00572 0.51170 0.46410
 O1256 O 0.02640 0.49236 0.48315
 Zr1257 Zr -0.03832 0.48748 0.48255
 O1258 O -0.01994 0.46652 0.50222
 Zr1259 Zr -0.01928 0.53094 0.50732
 O1260 O -0.00034 0.51218 0.52873
 O1261 O 0.01614 0.47585 0.51926
 O1262 O -0.02477 0.51770 0.47696
 C1263 C -0.00036 0.43302 0.52769
 C1264 C 0.05916 0.46704 0.50289
 C1265 C 0.02457 0.49202 0.56214
 C1266 C -0.00895 0.55940 0.46683
 C1267 C -0.03442 0.50375 0.43504
 C1268 C -0.06684 0.52789 0.49128
 H1269 H -0.00996 0.47373 0.45416
 H1270 H -0.04838 0.50305 0.52077
 H1271 H 0.02525 0.46659 0.52854
 H1272 H 0.01933 0.54028 0.49210
 H1273 H 0.04610 0.51915 0.45729
 H1274 H 0.05556 0.52897 0.49111
 H1275 H -0.07026 0.47741 0.50767
 H1276 H -0.04776 0.45679 0.53140
 H1277 H 0.02069 0.50482 0.42542
 H1278 H 0.03416 0.44036 0.46135
 H1279 H -0.04519 0.53349 0.54002
 H1280 H -0.02610 0.50860 0.56120
 H1281 H -0.01728 0.43392 0.47810
 H1282 H -0.04057 0.45488 0.45633
 H1283 H 0.02858 0.53884 0.53983
 H1284 H 0.00621 0.56261 0.51746
 O1285 O 0.50948 0.93502 0.00983
 O1286 O 0.49901 0.93440 -0.02570
 O1287 O 0.55773 0.98551 0.01164
 O1288 O 0.55977 1.02055 0.00529
 O1289 O 0.50665 0.98345 0.06013
 O1290 O 0.46977 0.99332 0.05963
 O1291 O 0.50133 1.04355 -0.04337
 O1292 O 0.53484 1.02791 -0.04551
 O1293 O 0.45592 0.99388 -0.04951
 O1294 O 0.45017 0.95901 -0.03175
 O1295 O 0.44962 1.03830 0.00076
 O1296 O 0.46668 1.04381 0.03534
 O1297 O 0.48402 1.05668 -0.01383
 O1298 O 0.49429 1.05706 0.02540
 O1299 O 0.43645 1.00850 -0.01595
 O1300 O 0.43581 0.96981 -0.00502
 O1301 O 0.48580 1.01105 -0.06185
 O1302 O 0.52231 0.99471 -0.06108
 O1303 O 0.49171 0.94804 0.03916
 O1304 O 0.45786 0.96646 0.04355
 O1305 O 0.53683 0.99984 0.04749
 O1306 O 0.54024 1.03509 0.02897
 O1307 O 0.54477 0.95524 -0.00444
 O1308 O 0.52685 0.95331 -0.04006
 Zr1309 Zr 0.51204 0.96208 -0.01048
 O1310 O 0.49267 0.98074 -0.03124
 Zr1311 Zr 0.53063 1.00559 0.01468
 O1312 O 0.51263 1.02604 -0.00550
 Zr1313 Zr 0.48670 0.98105 0.03272
 O1314 O 0.46659 1.00087 0.01379
 Zr1315 Zr 0.50688 1.01117 -0.03533
 O1316 O 0.52749 0.99183 -0.01620
 Zr1317 Zr 0.46273 0.98710 -0.01692
 O1318 O 0.48105 0.96614 0.00282
 Zr1319 Zr 0.48185 1.03055 0.00781
 O1320 O 0.50068 1.01179 0.02930
 O1321 O 0.51711 0.97541 0.01991
 O1322 O 0.47639 1.01727 -0.02253
 C1323 C 0.50045 0.93262 0.02836
 C1324 C 0.56017 0.96656 0.00363
 C1325 C 0.52551 0.99164 0.06276
 C1326 C 0.49225 1.05888 -0.03275
 C1327 C 0.46679 1.00328 -0.06446
 C1328 C 0.43435 1.02766 -0.00835
 H1329 H 0.49112 0.97322 -0.04522
 H1330 H 0.45265 1.00277 0.02125
 H1331 H 0.52619 0.96614 0.02923
 H1332 H 0.52050 1.03978 -0.00738
 H1333 H 0.54729 1.01851 -0.04208
 H1334 H 0.55673 1.02835 -0.00827
 H1335 H 0.43069 0.97722 0.00814
 H1336 H 0.45312 0.95655 0.03196
 H1337 H 0.52192 1.00418 -0.07397
 H1338 H 0.53521 0.93982 -0.03790
 H1339 H 0.45592 1.03322 0.04048
 H1340 H 0.47486 1.00831 0.06172
 H1341 H 0.48370 0.93350 -0.02132
 H1342 H 0.46044 0.95446 -0.04307
 H1343 H 0.52965 1.03839 0.04044
 H1344 H 0.50736 1.06223 0.01788
 O1345 O 0.54311 0.50039 -0.04564
 O1346 O 0.54644 0.53366 -0.02905
 O1347 O 0.55032 0.45519 0.00653
 O1348 O 0.53409 0.44780 0.03771
 O1349 O 0.49816 0.44784 -0.03931
 O1350 O 0.46432 0.46522 -0.04382
 O1351 O 0.49112 0.50936 0.06333
 O1352 O 0.52599 0.49764 0.06412
 O1353 O 0.48737 0.55609 0.01400
 O1354 O 0.49701 0.55720 -0.02386
 O1355 O 0.44102 0.50626 0.01629
 O1356 O 0.44042 0.46875 0.00681
 O1357 O 0.46137 0.49227 0.05034
 O1358 O 0.45687 0.45656 0.03158
 O1359 O 0.45358 0.53631 -0.00040
 O1360 O 0.47195 0.54111 -0.03596
 O1361 O 0.50387 0.54314 0.04401
 O1362 O 0.54056 0.52718 0.04392
 O1363 O 0.51314 0.48373 -0.05873
 O1364 O 0.47549 0.49311 -0.05874
 O1365 O 0.51525 0.43485 -0.00964
 O1366 O 0.50344 0.43536 0.02843
 O1367 O 0.56273 0.48482 -0.01108
 O1368 O 0.56136 0.52229 0.00253
 Zr1369 Zr 0.53585 0.50545 -0.01293
 O1370 O 0.51683 0.52583 0.00641
 Zr1371 Zr 0.51734 0.46146 0.01135
 O1372 O 0.49808 0.48010 0.03216
 Zr1373 Zr 0.49244 0.48047 -0.03199
 O1374 O 0.47163 0.49949 -0.01309
 Zr1375 Zr 0.51138 0.51096 0.03628
 O1376 O 0.53228 0.49129 0.01776
 Zr1377 Zr 0.48607 0.52954 -0.00711
 O1378 O 0.50594 0.51130 -0.02795
 Zr1379 Zr 0.46800 0.48569 0.01765
 O1380 O 0.48650 0.46504 -0.00237
 O1381 O 0.52268 0.47513 -0.01870
 O1382 O 0.48077 0.51626 0.02330
 C1383 C 0.53198 0.49211 -0.06108
 C1384 C 0.56544 0.46616 -0.00248
 C1385 C 0.50693 0.43249 -0.02848
 C1386 C 0.47220 0.50120 0.06565
 C1387 C 0.49501 0.55839 0.03312
 C1388 C 0.43847 0.52528 0.00845
 H1389 H 0.52432 0.53980 0.00821
 H1390 H 0.45768 0.50094 -0.02065
 H1391 H 0.53197 0.46608 -0.02799
 H1392 H 0.49674 0.47257 0.04614
 H1393 H 0.53967 0.49094 0.05933
 H1394 H 0.53068 0.45674 0.05045
 H1395 H 0.45957 0.53169 -0.03949
 H1396 H 0.48115 0.50785 -0.06117
 H1397 H 0.53877 0.53423 0.05816
 H1398 H 0.57469 0.52065 -0.00616
 H1399 H 0.43713 0.47386 -0.00793
 H1400 H 0.45926 0.45546 -0.03224
 H1401 H 0.53420 0.53881 -0.03789
 H1402 H 0.51125 0.56119 -0.01788
 H1403 H 0.48986 0.43159 0.02092
 H1404 H 0.46617 0.45327 0.04412
 O1405 O -0.00913 0.00900 0.56469
 O1406 O 0.02637 -0.00159 0.56521
 O1407 O -0.01100 0.05705 0.51407
 O1408 O -0.00460 0.05890 0.47902
 O1409 O -0.05965 0.00620 0.51651
 O1410 O -0.05941 -0.03074 0.50676
 O1411 O 0.04356 0.00014 0.45607
 O1412 O 0.04596 0.03369 0.47155
 O1413 O 0.04967 -0.04511 0.50592
 O1414 O 0.03200 -0.05063 0.54083
 O1415 O -0.00086 -0.05145 0.46171
 O1416 O -0.03530 -0.03424 0.45619
 O1417 O 0.01389 -0.01710 0.44309
 O1418 O -0.02530 -0.00671 0.44284
 O1419 O 0.01589 -0.06455 0.49150
 O1420 O 0.00516 -0.06491 0.53021
 O1421 O 0.06210 -0.01534 0.48860
 O1422 O 0.06157 0.02126 0.50474
 O1423 O -0.03862 -0.00871 0.55187
 O1424 O -0.04329 -0.04263 0.53360
 O1425 O -0.04692 0.03625 0.49990
 O1426 O -0.02853 0.03942 0.46461
 O1427 O 0.00516 0.04415 0.54432
 O1428 O 0.04075 0.02614 0.54613
 Zr1429 Zr 0.01106 0.01136 0.53756
 O1430 O 0.03164 -0.00820 0.51893
 Zr1431 Zr -0.01417 0.02987 0.49408
 O1432 O 0.00582 0.01166 0.47366
 Zr1433 Zr -0.03236 -0.01389 0.51886
 O1434 O -0.01361 -0.03419 0.49908
 Zr1435 Zr 0.03568 0.00585 0.48844
 O1436 O 0.01675 0.02665 0.50774
 Zr1437 Zr 0.01713 -0.03813 0.51275
 O1438 O -0.00242 -0.01960 0.53369
 Zr1439 Zr -0.00765 -0.01911 0.46931
 O1440 O -0.02897 -0.00007 0.48806
 O1441 O -0.01936 0.01650 0.52432
 O1442 O 0.02271 -0.02464 0.48251
 C1443 C -0.02769 0.00007 0.56721
 C1444 C -0.00294 0.05954 0.53301
 C1445 C -0.06222 0.02504 0.50824
 C1446 C 0.03283 -0.00892 0.44081
 C1447 C 0.06465 -0.03433 0.49647
 C1448 C 0.00817 -0.06674 0.47240
 H1449 H 0.04563 -0.00978 0.52641
 H1450 H -0.02116 -0.04811 0.49727
 H1451 H -0.02859 0.02565 0.53358
 H1452 H 0.00769 0.01946 0.45988
 H1453 H 0.04262 0.04621 0.48089
 H1454 H 0.00882 0.05571 0.47107
 H1455 H -0.00808 -0.07000 0.52290
 H1456 H -0.03169 -0.04737 0.54349
 H1457 H 0.07442 0.02077 0.49524
 H1458 H 0.03869 0.03457 0.55958
 H1459 H -0.04053 -0.04483 0.46690
 H1460 H -0.06155 -0.02568 0.49177
 H1461 H 0.02189 -0.01688 0.56621
 H1462 H 0.04337 -0.04038 0.54531
 H1463 H -0.04004 0.02884 0.46138
 H1464 H -0.01775 0.00632 0.43759
 O1465 O 0.68830 0.23678 0.26108
 O1466 O 0.68775 0.24760 0.22562
 O1467 O 0.73900 0.18877 0.26249
 O1468 O 0.77407 0.18710 0.25595
 O1469 O 0.73673 0.23937 0.31155
 O1470 O 0.74625 0.27636 0.31150
 O1471 O 0.79680 0.24663 0.20825
 O1472 O 0.78165 0.21287 0.20573
 O1473 O 0.74662 0.29138 0.20255
 O1474 O 0.71172 0.29658 0.22042
 O1475 O 0.79088 0.29773 0.25316
 O1476 O 0.79633 0.27982 0.28775
 O1477 O 0.80967 0.26375 0.23803
 O1478 O 0.81045 0.25309 0.27681
 O1479 O 0.76106 0.31067 0.23638
 O1480 O 0.72246 0.31088 0.24718
 O1481 O 0.76401 0.26178 0.18984
 O1482 O 0.74827 0.22502 0.19027
 O1483 O 0.70121 0.25419 0.29070
 O1484 O 0.71925 0.28811 0.29565
 O1485 O 0.75339 0.20942 0.29865
 O1486 O 0.78850 0.20641 0.28009
 O1487 O 0.70871 0.20184 0.24657
 O1488 O 0.70685 0.21993 0.21111
 Zr1489 Zr 0.71542 0.23461 0.24085
 O1490 O 0.73394 0.25434 0.22036
 Zr1491 Zr 0.75899 0.21600 0.26586
 O1492 O 0.77931 0.23452 0.24599
 Zr1493 Zr 0.73414 0.25958 0.28440
 O1494 O 0.75373 0.28013 0.26575
 Zr1495 Zr 0.76449 0.24048 0.21618
 O1496 O 0.74528 0.21946 0.23499
 Zr1497 Zr 0.73996 0.28419 0.23506
 O1498 O 0.71918 0.26546 0.25456
 Zr1499 Zr 0.78353 0.26523 0.25966
 O1500 O 0.76495 0.24587 0.28083
 O1501 O 0.72873 0.22926 0.27121
 O1502 O 0.77026 0.27091 0.22935
 C1503 C 0.68585 0.24555 0.27972
 C1504 C 0.72003 0.18637 0.25445
 C1505 C 0.74513 0.22058 0.31403
 C1506 C 0.81198 0.25582 0.21900
 C1507 C 0.75601 0.28073 0.18745
 C1508 C 0.78010 0.31297 0.24416
 H1509 H 0.72640 0.25596 0.20639
 H1510 H 0.75546 0.29401 0.27340
 H1511 H 0.71954 0.22001 0.28043
 H1512 H 0.79314 0.22684 0.24403
 H1513 H 0.77243 0.20024 0.20900
 H1514 H 0.78225 0.19052 0.24271
 H1515 H 0.72970 0.31583 0.26051
 H1516 H 0.70940 0.29298 0.28406
 H1517 H 0.75774 0.22564 0.17740
 H1518 H 0.69338 0.21153 0.21312
 H1519 H 0.78600 0.29098 0.29255
 H1520 H 0.76127 0.27136 0.31357
 H1521 H 0.68660 0.26281 0.23032
 H1522 H 0.70735 0.28647 0.20887
 H1523 H 0.79190 0.21711 0.29145
 H1524 H 0.81537 0.23982 0.26944
 O1525 O 0.75456 0.70895 0.70127
 O1526 O 0.78791 0.70510 0.71746
 O1527 O 0.70981 0.70239 0.75383
 O1528 O 0.70282 0.71873 0.78501
 O1529 O 0.70287 0.75481 0.70812
 O1530 O 0.72089 0.78839 0.70358
 O1531 O 0.76532 0.76039 0.81031
 O1532 O 0.75298 0.72573 0.81098
 O1533 O 0.81170 0.76375 0.76084
 O1534 O 0.81243 0.75408 0.72284
 O1535 O 0.76268 0.81084 0.76336
 O1536 O 0.72525 0.81214 0.75440
 O1537 O 0.74882 0.79056 0.79754
 O1538 O 0.71292 0.79569 0.77908
 O1539 O 0.79235 0.79798 0.74627
 O1540 O 0.79677 0.77943 0.71089
 O1541 O 0.79861 0.74727 0.79078
 O1542 O 0.78215 0.71080 0.79050
 O1543 O 0.73830 0.73922 0.68838
 O1544 O 0.74839 0.77670 0.68836
 O1545 O 0.68992 0.73778 0.73783
 O1546 O 0.69092 0.74960 0.77591
 O1547 O 0.73906 0.68951 0.73596
 O1548 O 0.77670 0.69028 0.74911
 Zr1549 Zr 0.76009 0.71609 0.73392
 O1550 O 0.78093 0.73472 0.75317
 Zr1551 Zr 0.71662 0.73527 0.75861
 O1552 O 0.73574 0.75414 0.77934
 Zr1553 Zr 0.73568 0.75995 0.71519
 O1554 O 0.75521 0.78038 0.73403
 Zr1555 Zr 0.76635 0.74028 0.78315
 O1556 O 0.74621 0.71977 0.76471
 Zr1557 Zr 0.78508 0.76548 0.73977
 O1558 O 0.76632 0.74597 0.71898
 Zr1559 Zr 0.74174 0.78417 0.76489
 O1560 O 0.72061 0.76609 0.74495
 O1561 O 0.72995 0.72976 0.72844
 O1562 O 0.77211 0.77088 0.77028
 C1563 C 0.74630 0.72022 0.68594
 C1564 C 0.72045 0.68709 0.74474
 C1565 C 0.68750 0.74621 0.71905
 C1566 C 0.75759 0.77948 0.81275
 C1567 C 0.81393 0.75599 0.77993
 C1568 C 0.78159 0.81323 0.75524
 H1569 H 0.79478 0.72700 0.75487
 H1570 H 0.75681 0.79433 0.72649
 H1571 H 0.72066 0.72061 0.71921
 H1572 H 0.72835 0.75557 0.79338
 H1573 H 0.74607 0.71216 0.80617
 H1574 H 0.71197 0.72187 0.79768
 H1575 H 0.78731 0.79174 0.70722
 H1576 H 0.76298 0.77076 0.68579
 H1577 H 0.78928 0.71239 0.80473
 H1578 H 0.77474 0.67699 0.74040
 H1579 H 0.73003 0.81521 0.73951
 H1580 H 0.71122 0.79353 0.71520
 H1581 H 0.79324 0.71734 0.70871
 H1582 H 0.81626 0.73980 0.72883
 H1583 H 0.68732 0.76324 0.76844
 H1584 H 0.70969 0.78653 0.79173
 O1585 O 0.29172 0.20241 0.74466
 O1586 O 0.29481 0.21858 0.71109
 O1587 O 0.29848 0.25517 0.78913
 O1588 O 0.28196 0.28610 0.79655
 O1589 O 0.24642 0.20895 0.79677
 O1590 O 0.21268 0.20412 0.77915
 O1591 O 0.23916 0.31116 0.73457
 O1592 O 0.27401 0.31216 0.74642
 O1593 O 0.23588 0.26152 0.68810
 O1594 O 0.24549 0.22365 0.68728
 O1595 O 0.18932 0.26400 0.73783
 O1596 O 0.18858 0.25473 0.77527
 O1597 O 0.20946 0.29813 0.75166
 O1598 O 0.20504 0.27951 0.78750
 O1599 O 0.20191 0.24712 0.70792
 O1600 O 0.22042 0.21161 0.70333
 O1601 O 0.25221 0.29167 0.70096
 O1602 O 0.28879 0.29179 0.71710
 O1603 O 0.26174 0.18932 0.76128
 O1604 O 0.22417 0.18902 0.75144
 O1605 O 0.26349 0.23873 0.80954
 O1606 O 0.25138 0.27679 0.80875
 O1607 O 0.31108 0.23738 0.75969
 O1608 O 0.30966 0.25034 0.72208
 Zr1609 Zr 0.28420 0.23502 0.73909
 O1610 O 0.26516 0.25419 0.71855
 Zr1611 Zr 0.26547 0.25959 0.78285
 O1612 O 0.24621 0.28021 0.76402
 Zr1613 Zr 0.24084 0.21597 0.76405
 O1614 O 0.22001 0.23470 0.74484
 Zr1615 Zr 0.25956 0.28417 0.73320
 O1616 O 0.28047 0.26583 0.75303
 Zr1617 Zr 0.23445 0.24056 0.71479
 O1618 O 0.25436 0.21987 0.73323
 Zr1619 Zr 0.21622 0.26551 0.75844
 O1620 O 0.23472 0.24568 0.77927
 O1621 O 0.27100 0.22946 0.76941
 O1622 O 0.22901 0.27104 0.72788
 C1623 C 0.28068 0.18700 0.75313
 C1624 C 0.31369 0.24624 0.77824
 C1625 C 0.25517 0.21991 0.81204
 C1626 C 0.22022 0.31344 0.74268
 C1627 C 0.24351 0.28065 0.68572
 C1628 C 0.18677 0.25604 0.71888
 H1629 H 0.27269 0.25592 0.70461
 H1630 H 0.20608 0.22708 0.74340
 H1631 H 0.28035 0.22033 0.77858
 H1632 H 0.24479 0.29424 0.77146
 H1633 H 0.28769 0.30747 0.75319
 H1634 H 0.27877 0.29874 0.78739
 H1635 H 0.20814 0.20800 0.71284
 H1636 H 0.22996 0.18653 0.73678
 H1637 H 0.28700 0.30601 0.70999
 H1638 H 0.32300 0.24167 0.72380
 H1639 H 0.18542 0.23990 0.77031
 H1640 H 0.20754 0.21572 0.78885
 H1641 H 0.28264 0.20950 0.70614
 H1642 H 0.25984 0.22947 0.68347
 H1643 H 0.23791 0.26914 0.81262
 H1644 H 0.21415 0.29222 0.79067
 O1645 O 0.20129 0.74709 0.29185
 O1646 O 0.21725 0.71348 0.29530
 O1647 O 0.25420 0.79140 0.29826
 O1648 O 0.28532 0.79827 0.28176
 O1649 O 0.20825 0.79885 0.24598
 O1650 O 0.20319 0.78099 0.21254
 O1651 O 0.30995 0.73601 0.23956
 O1652 O 0.31091 0.74788 0.27434
 O1653 O 0.25990 0.68974 0.23633
 O1654 O 0.22215 0.68918 0.24618
 O1655 O 0.26281 0.73889 0.18955
 O1656 O 0.25379 0.77653 0.18845
 O1657 O 0.29712 0.75288 0.20963
 O1658 O 0.27870 0.78865 0.20468
 O1659 O 0.24547 0.70933 0.20240
 O1660 O 0.21001 0.70525 0.22110
 O1661 O 0.29018 0.70254 0.25246
 O1662 O 0.29037 0.71872 0.28910
 O1663 O 0.18832 0.76360 0.26174
 O1664 O 0.18798 0.75345 0.22420
 O1665 O 0.23811 0.81159 0.26295
 O1666 O 0.27611 0.81042 0.25107
 O1667 O 0.23627 0.76214 0.31109
 O1668 O 0.24909 0.72443 0.31002
 Zr1669 Zr 0.23384 0.74130 0.28441
 O1670 O 0.25283 0.72044 0.26555
 Zr1671 Zr 0.25871 0.78473 0.26531
 O1672 O 0.27916 0.76559 0.24620
 Zr1673 Zr 0.21499 0.76602 0.24080
 O1674 O 0.23356 0.74652 0.22013
 Zr1675 Zr 0.28288 0.73484 0.25982
 O1676 O 0.26473 0.75498 0.28057
 Zr1677 Zr 0.23915 0.71655 0.23488
 O1678 O 0.21863 0.73530 0.25463
 Zr1679 Zr 0.26448 0.75983 0.21623
 O1680 O 0.24481 0.78096 0.23457
 O1681 O 0.22849 0.77155 0.27093
 O1682 O 0.26973 0.72934 0.22932
 C1683 C 0.18594 0.75556 0.28073
 C1684 C 0.24519 0.78068 0.31357
 C1685 C 0.21933 0.81413 0.25455
 C1686 C 0.31236 0.74399 0.22058
 C1687 C 0.27907 0.68733 0.24382
 C1688 C 0.25456 0.72002 0.18718
 H1689 H 0.25448 0.70652 0.27317
 H1690 H 0.22592 0.74501 0.20622
 H1691 H 0.21941 0.78088 0.28016
 H1692 H 0.29324 0.77293 0.24474
 H1693 H 0.30622 0.75477 0.28796
 H1694 H 0.29787 0.78900 0.27859
 H1695 H 0.20651 0.71463 0.20868
 H1696 H 0.18526 0.73892 0.23024
 H1697 H 0.30449 0.71144 0.28731
 H1698 H 0.24046 0.72632 0.32336
 H1699 H 0.23901 0.77150 0.18521
 H1700 H 0.21493 0.79037 0.20717
 H1701 H 0.20821 0.70841 0.28316
 H1702 H 0.22800 0.68541 0.26053
 H1703 H 0.26862 0.81414 0.23747
 H1704 H 0.29127 0.79197 0.21394
 O1705 O 0.18869 0.73638 0.76192
 O1706 O 0.18812 0.74721 0.72646
 O1707 O 0.23940 0.68828 0.76313
 O1708 O 0.27447 0.68661 0.75670
 O1709 O 0.23717 0.73884 0.81233
 O1710 O 0.24674 0.77582 0.81232
 O1711 O 0.29718 0.74610 0.70904
 O1712 O 0.28197 0.71239 0.70647
 O1713 O 0.24697 0.79093 0.70339
 O1714 O 0.21209 0.79614 0.72131
 O1715 O 0.29130 0.79723 0.75394
 O1716 O 0.29677 0.77931 0.78853
 O1717 O 0.31008 0.76320 0.73882
 O1718 O 0.31087 0.75259 0.77758
 O1719 O 0.26146 0.81018 0.73719
 O1720 O 0.22290 0.81042 0.74805
 O1721 O 0.26438 0.76135 0.69065
 O1722 O 0.24861 0.72461 0.69103
 O1723 O 0.20166 0.75374 0.79154
 O1724 O 0.21973 0.78762 0.79652
 O1725 O 0.25376 0.70889 0.79937
 O1726 O 0.28888 0.70588 0.78082
 O1727 O 0.20907 0.70141 0.74733
 O1728 O 0.20716 0.71954 0.71192
 Zr1729 Zr 0.21579 0.73417 0.74167
 O1730 O 0.23431 0.75390 0.72117
 Zr1731 Zr 0.25937 0.71551 0.76661
 O1732 O 0.27970 0.73403 0.74675
 Zr1733 Zr 0.23458 0.75909 0.78521
 O1734 O 0.25415 0.77964 0.76657
 Zr1735 Zr 0.26486 0.74002 0.71696
 O1736 O 0.24563 0.71901 0.73576
 Zr1737 Zr 0.24035 0.78372 0.73590
 O1738 O 0.21959 0.76501 0.75541
 Zr1739 Zr 0.28395 0.76473 0.76044
 O1740 O 0.26538 0.74536 0.78161
 O1741 O 0.22913 0.72878 0.77201
 O1742 O 0.27065 0.77044 0.73015
 C1743 C 0.18627 0.74515 0.78056
 C1744 C 0.22043 0.68592 0.75510
 C1745 C 0.24554 0.72004 0.81478
 C1746 C 0.31238 0.75525 0.71980
 C1747 C 0.25635 0.78029 0.68828
 C1748 C 0.28051 0.81247 0.74496
 H1749 H 0.22677 0.75553 0.70721
 H1750 H 0.25590 0.79352 0.77422
 H1751 H 0.21993 0.71953 0.78121
 H1752 H 0.29351 0.72634 0.74478
 H1753 H 0.27273 0.69978 0.70974
 H1754 H 0.28258 0.69002 0.74343
 H1755 H 0.23015 0.81535 0.76137
 H1756 H 0.20989 0.79252 0.78495
 H1757 H 0.25807 0.72524 0.67816
 H1758 H 0.19368 0.71115 0.71393
 H1759 H 0.28645 0.79048 0.79333
 H1760 H 0.26175 0.77080 0.81437
 H1761 H 0.18697 0.76241 0.73120
 H1762 H 0.20772 0.78605 0.70975
 H1763 H 0.29227 0.71656 0.79221
 H1764 H 0.31573 0.73928 0.77025
 O1765 O 0.25387 0.20805 0.19996
 O1766 O 0.28718 0.20438 0.21623
 O1767 O 0.20905 0.20158 0.25255
 O1768 O 0.20193 0.21806 0.28360
 O1769 O 0.20200 0.25376 0.20654
 O1770 O 0.21986 0.28736 0.20185
 O1771 O 0.26428 0.26006 0.30882
 O1772 O 0.25208 0.22535 0.30962
 O1773 O 0.31070 0.26337 0.25934
 O1774 O 0.31153 0.25355 0.22143
 O1775 O 0.26152 0.31026 0.26167
 O1776 O 0.22412 0.31142 0.25264
 O1777 O 0.24764 0.29009 0.29590
 O1778 O 0.21174 0.29496 0.27731
 O1779 O 0.29124 0.29743 0.24465
 O1780 O 0.29572 0.27874 0.20930
 O1781 O 0.29766 0.24697 0.28936
 O1782 O 0.28133 0.21044 0.28925
 O1783 O 0.23754 0.23822 0.18691
 O1784 O 0.24747 0.27576 0.18678
 O1785 O 0.18905 0.23684 0.23631
 O1786 O 0.18998 0.24883 0.27435
 O1787 O 0.23836 0.18870 0.23477
 O1788 O 0.27600 0.18970 0.24794
 Zr1789 Zr 0.25930 0.21536 0.23260
 O1790 O 0.28005 0.23417 0.25179
 Zr1791 Zr 0.21574 0.23451 0.25714
 O1792 O 0.23476 0.25354 0.27782
 Zr1793 Zr 0.23477 0.25905 0.21363
 O1794 O 0.25418 0.27965 0.23243
 Zr1795 Zr 0.26543 0.23982 0.28174
 O1796 O 0.24538 0.21915 0.26337
 Zr1797 Zr 0.28410 0.26489 0.23826
 O1798 O 0.26545 0.24519 0.21753
 Zr1799 Zr 0.24066 0.28353 0.26325
 O1800 O 0.21964 0.26528 0.24335
 O1801 O 0.22912 0.22890 0.22701
 O1802 O 0.27107 0.27038 0.26873
 C1803 C 0.24563 0.21924 0.18455
 C1804 C 0.21976 0.18626 0.24357
 C1805 C 0.18663 0.24518 0.21750
 C1806 C 0.25646 0.27912 0.31118
 C1807 C 0.31295 0.25571 0.27847
 C1808 C 0.28043 0.31268 0.25357
 H1809 H 0.29393 0.22652 0.25354
 H1810 H 0.25574 0.29358 0.22483
 H1811 H 0.21988 0.21967 0.21781
 H1812 H 0.22735 0.25500 0.29185
 H1813 H 0.24523 0.21172 0.30487
 H1814 H 0.21110 0.22120 0.29625
 H1815 H 0.28628 0.29107 0.20564
 H1816 H 0.26207 0.26985 0.18423
 H1817 H 0.28845 0.21213 0.30347
 H1818 H 0.27408 0.17635 0.23931
 H1819 H 0.22887 0.31440 0.23772
 H1820 H 0.21021 0.29255 0.21345
 H1821 H 0.29251 0.21661 0.20747
 H1822 H 0.31537 0.23928 0.22745
 H1823 H 0.18630 0.26241 0.26680
 H1824 H 0.20855 0.28590 0.29003
 O1825 O 0.74691 0.70932 0.29745
 O1826 O 0.71338 0.70590 0.28128
 O1827 O 0.79149 0.70310 0.24492
 O1828 O 0.79850 0.71968 0.21385
 O1829 O 0.79863 0.75530 0.29100
 O1830 O 0.78070 0.78872 0.29601
 O1831 O 0.73636 0.76199 0.18891
 O1832 O 0.74828 0.72726 0.18787
 O1833 O 0.68983 0.76492 0.23864
 O1834 O 0.68909 0.75506 0.27638
 O1835 O 0.73904 0.81186 0.23622
 O1836 O 0.77664 0.81288 0.24550
 O1837 O 0.75316 0.79189 0.20195
 O1838 O 0.78879 0.79682 0.22053
 O1839 O 0.70936 0.79894 0.25326
 O1840 O 0.70506 0.78013 0.28864
 O1841 O 0.70278 0.74884 0.20842
 O1842 O 0.71911 0.71228 0.20822
 O1843 O 0.76332 0.73940 0.31062
 O1844 O 0.75312 0.77692 0.31104
 O1845 O 0.81157 0.73843 0.26119
 O1846 O 0.81059 0.75039 0.22319
 O1847 O 0.76212 0.69020 0.26258
 O1848 O 0.72452 0.69127 0.24947
 Zr1849 Zr 0.74127 0.71686 0.26490
 O1850 O 0.72052 0.73578 0.24584
 Zr1851 Zr 0.78483 0.73607 0.24040
 O1852 O 0.76579 0.75524 0.21986
 Zr1853 Zr 0.76585 0.76045 0.28405
 O1854 O 0.74645 0.78117 0.26540
 Zr1855 Zr 0.73507 0.74161 0.21589
 O1856 O 0.75513 0.72081 0.23412
 Zr1857 Zr 0.71653 0.76642 0.25956
 O1858 O 0.73517 0.74660 0.28015
 Zr1859 Zr 0.75995 0.78517 0.23459
 O1860 O 0.78096 0.76678 0.25435
 O1861 O 0.77147 0.73036 0.27050
 O1862 O 0.72949 0.77209 0.22908
 C1863 C 0.75531 0.72038 0.31287
 C1864 C 0.78073 0.68776 0.25382
 C1865 C 0.81399 0.74679 0.28001
 C1866 C 0.74435 0.78100 0.18662
 C1867 C 0.68749 0.75739 0.21948
 C1868 C 0.72013 0.81421 0.24433
 H1869 H 0.70663 0.72813 0.24408
 H1870 H 0.74490 0.79506 0.27307
 H1871 H 0.78076 0.72111 0.27962
 H1872 H 0.77320 0.75675 0.20584
 H1873 H 0.75518 0.71363 0.19254
 H1874 H 0.78933 0.72292 0.20122
 H1875 H 0.71443 0.79252 0.29226
 H1876 H 0.73858 0.77087 0.31362
 H1877 H 0.71190 0.71408 0.19406
 H1878 H 0.72635 0.67791 0.25809
 H1879 H 0.77145 0.81615 0.26021
 H1880 H 0.79018 0.79412 0.28437
 H1881 H 0.70829 0.71800 0.29037
 H1882 H 0.68541 0.74068 0.27052
 H1883 H 0.81425 0.76398 0.23072
 H1884 H 0.79221 0.78756 0.20800
 O1885 O 0.70302 0.24656 0.79245
 O1886 O 0.71931 0.21309 0.79585
 O1887 O 0.75543 0.29139 0.79894
 O1888 O 0.78652 0.29853 0.78250
 O1889 O 0.70949 0.29842 0.74659
 O1890 O 0.70459 0.28051 0.71316
 O1891 O 0.81176 0.23654 0.74006
 O1892 O 0.81266 0.24848 0.77485
 O1893 O 0.76222 0.18984 0.73686
 O1894 O 0.72449 0.18885 0.74665
 O1895 O 0.76455 0.23915 0.69012
 O1896 O 0.75509 0.27684 0.68924
 O1897 O 0.79871 0.25331 0.71017
 O1898 O 0.78015 0.28890 0.70526
 O1899 O 0.74757 0.20936 0.70290
 O1900 O 0.71215 0.20488 0.72165
 O1901 O 0.79234 0.20291 0.75307
 O1902 O 0.79240 0.21913 0.78967
 O1903 O 0.68992 0.26301 0.76236
 O1904 O 0.68962 0.25284 0.72485
 O1905 O 0.73920 0.31146 0.76358
 O1906 O 0.77722 0.31068 0.75179
 O1907 O 0.73783 0.26190 0.81172
 O1908 O 0.75105 0.22432 0.81058
 Zr1909 Zr 0.73563 0.24108 0.78500
 O1910 O 0.75482 0.22044 0.76610
 Zr1911 Zr 0.76005 0.28479 0.76598
 O1912 O 0.78070 0.26588 0.74682
 Zr1913 Zr 0.71654 0.26566 0.74142
 O1914 O 0.73528 0.24637 0.72072
 Zr1915 Zr 0.78473 0.23514 0.76039
 O1916 O 0.76638 0.25508 0.78118
 Zr1917 Zr 0.74119 0.21644 0.73542
 O1918 O 0.72048 0.23496 0.75521
 Zr1919 Zr 0.76606 0.26003 0.71685
 O1920 O 0.74620 0.28092 0.73523
 O1921 O 0.72997 0.27130 0.77156
 O1922 O 0.77162 0.22956 0.72988
 C1923 C 0.68761 0.25493 0.78135
 C1924 C 0.74654 0.28055 0.81423
 C1925 C 0.72041 0.31382 0.75514
 C1926 C 0.81404 0.24451 0.72106
 C1927 C 0.78139 0.18759 0.74442
 C1928 C 0.75650 0.22020 0.68769
 H1929 H 0.75661 0.20654 0.77371
 H1930 H 0.72766 0.24482 0.70682
 H1931 H 0.72081 0.28054 0.78080
 H1932 H 0.79470 0.27335 0.74536
 H1933 H 0.80793 0.25530 0.78849
 H1934 H 0.79920 0.28946 0.77921
 H1935 H 0.70855 0.21423 0.70924
 H1936 H 0.68706 0.23828 0.73087
 H1937 H 0.80660 0.21200 0.78789
 H1938 H 0.74239 0.22610 0.82392
 H1939 H 0.74050 0.27141 0.68578
 H1940 H 0.71622 0.29002 0.70779
 H1941 H 0.71030 0.20796 0.78370
 H1942 H 0.73031 0.18520 0.76104
 H1943 H 0.76976 0.31427 0.73814
 H1944 H 0.79259 0.29238 0.71462
 C1945 C 0.05697 1.00743 1.13031
 C1946 C 0.06846 0.99878 1.11293
 C1947 C 0.05955 0.99892 1.09224
 C1948 C 0.07422 1.00529 1.16924
 C1949 C 0.02762 1.01663 1.10618
 C1950 C 0.03658 1.01645 1.12688
 C1951 C 0.06606 1.00655 1.15164
 C1952 C 0.03894 1.00773 1.08861
 H1953 H 0.08425 0.99175 1.11541
 H1954 H 0.06874 0.99195 1.07914
 H1955 H 0.01173 1.02353 1.10400
 H1956 H 0.02755 1.02318 1.14022
 C1957 C 0.55680 0.51031 0.62865
 C1958 C 0.53614 0.51881 0.62555
 C1959 C 0.52687 0.51880 0.60498
 C1960 C 0.57432 0.50785 0.66744
 C1961 C 0.55909 0.50207 0.59052
 C1962 C 0.56831 0.50212 0.61107
 C1963 C 0.56608 0.50929 0.64990
 C1964 C 0.53816 0.51021 0.58724
 H1965 H 0.52709 0.52518 0.63906
 H1966 H 0.51074 0.52520 0.60306
 H1967 H 0.56827 0.49536 0.57727
 H1968 H 0.58432 0.49549 0.61331
 C1969 C 0.44287 -0.00498 0.62400
 C1970 C 0.46325 -0.01402 0.62064
 C1971 C 0.47232 -0.01405 0.60000
 C1972 C 0.42513 -0.00392 0.66272
 C1973 C 0.44049 0.00380 0.58598
 C1974 C 0.43147 0.00379 0.60661
 C1975 C 0.43356 -0.00453 0.64523
 C1976 C 0.46111 -0.00498 0.58243
 H1977 H 0.47219 -0.02091 0.63398
 H1978 H 0.48822 -0.02094 0.59788
 H1979 H 0.43139 0.01090 0.57288
 H1980 H 0.41564 0.01078 0.60904
 C1981 C -0.05577 0.49832 1.12522
 C1982 C -0.03540 0.48928 1.12184
 C1983 C -0.02636 0.48920 1.10118
 C1984 C -0.07392 0.49851 1.16376
 C1985 C -0.05817 0.50714 1.08721
 C1986 C -0.06714 0.50719 1.10787
 C1987 C -0.06526 0.49836 1.14637
 C1988 C -0.03764 0.49818 1.08360
 H1989 H -0.02649 0.48231 1.13515
 H1990 H -0.01053 0.48218 1.09901
 H1991 H -0.06730 0.51420 1.07411
 H1992 H -0.08296 0.51418 1.11031
 C1993 C -0.06211 0.50652 0.37153
 C1994 C -0.04180 0.51552 0.37540
 C1995 C -0.03295 0.51501 0.39614
 C1996 C -0.07861 0.50516 0.33222
 C1997 C -0.06490 0.49674 0.40929
 C1998 C -0.07370 0.49729 0.38854
 C1999 C -0.07089 0.50609 0.35005
 C2000 C -0.04431 0.50541 0.41331
 H2001 H -0.03268 0.52270 0.36234
 H2002 H -0.01708 0.52186 0.39862
 H2003 H -0.07412 0.48926 0.42209
 H2004 H -0.08945 0.49026 0.38572
 C2005 C 0.43929 1.00615 -0.12804
 C2006 C 0.42764 0.99689 -0.11108
 C2007 C 0.43638 0.99630 -0.09031
 C2008 C 0.42290 1.00487 -0.16740
 C2009 C 0.46838 1.01459 -0.10333
 C2010 C 0.45959 1.01514 -0.12410
 C2011 C 0.43058 1.00577 -0.14955
 C2012 C 0.45696 1.00496 -0.08621
 H2013 H 0.41191 0.98987 -0.11397
 H2014 H 0.42713 0.98879 -0.07755
 H2015 H 0.48424 1.02143 -0.10079
 H2016 H 0.46875 1.02234 -0.13711
 C2017 C 0.55897 0.49376 -0.12486
 C2018 C 0.53863 0.48463 -0.12148
 C2019 C 0.52992 0.48385 -0.10070
 C2020 C 0.57626 0.49567 -0.16373
 C2021 C 0.56200 0.50122 -0.08661
 C2022 C 0.57066 0.50196 -0.10738
 C2023 C 0.56803 0.49472 -0.14617
 C2024 C 0.54148 0.49223 -0.08301
 H2025 H 0.52948 0.47818 -0.13490
 H2026 H 0.51408 0.47683 -0.09855
 H2027 H 0.57136 0.50782 -0.07342
 H2028 H 0.58646 0.50902 -0.10983
 C2029 C 0.06046 -0.00845 0.37730
 C2030 C 0.07212 -0.00026 0.39479
 C2031 C 0.06333 -0.00078 0.41552
 C2032 C 0.07760 -0.00622 0.33836
 C2033 C 0.03121 -0.01804 0.40136
 C2034 C 0.04006 -0.01748 0.38063
 C2035 C 0.06948 -0.00736 0.35597
 C2036 C 0.04268 -0.00952 0.41904
 H2037 H 0.08796 0.00671 0.39239
 H2038 H 0.07263 0.00589 0.42871
 H2039 H 0.01529 -0.02487 0.40346
 H2040 H 0.03092 -0.02391 0.36720
 C2041 C 0.12565 1.05908 1.00578
 C2042 C 0.10819 1.07072 0.99751
 C2043 C 0.08743 1.06200 0.99818
 C2044 C 0.16448 1.07654 1.00399
 C2045 C 0.10152 1.02995 1.01561
 C2046 C 0.12228 1.03873 1.01491
 C2047 C 0.14694 1.06822 1.00490
 C2048 C 0.08384 1.04146 1.00717
 H2049 H 0.11063 1.08652 0.99046
 H2050 H 0.07425 1.07132 0.99154
 H2051 H 0.09936 1.01411 1.02263
 H2052 H 0.13570 1.02961 1.02141
 C2053 C 0.62291 0.56085 0.50711
 C2054 C 0.60549 0.57248 0.49875
 C2055 C 0.58472 0.56376 0.49932
 C2056 C 0.66195 0.57778 0.50485
 C2057 C 0.59872 0.53180 0.51699
 C2058 C 0.61948 0.54057 0.51637
 C2059 C 0.64429 0.56977 0.50600
 C2060 C 0.58110 0.54322 0.50829
 H2061 H 0.60798 0.58823 0.49160
 H2062 H 0.57158 0.57301 0.49251
 H2063 H 0.59655 0.51596 0.52401
 H2064 H 0.63286 0.53147 0.52295
 C2065 C 0.62925 0.43907 -0.00338
 C2066 C 0.62543 0.45928 -0.01265
 C2067 C 0.60465 0.46802 -0.01254
 C2068 C 0.66844 0.42232 -0.00221
 C2069 C 0.59141 0.43626 0.00601
 C2070 C 0.61219 0.42756 0.00587
 C2071 C 0.65068 0.43018 -0.00298
 C2072 C 0.58738 0.45666 -0.00311
 H2073 H 0.63853 0.46833 -0.01984
 H2074 H 0.60216 0.48375 -0.01971
 H2075 H 0.57855 0.42704 0.01338
 H2076 H 0.61498 0.41190 0.01310
 C2077 C 0.12821 -0.06185 0.49402
 C2078 C 0.11123 -0.07342 0.50333
 C2079 C 0.09045 -0.06469 0.50376
 C2080 C 0.16760 -0.07811 0.49559
 C2081 C 0.10352 -0.03287 0.48518
 C2082 C 0.12428 -0.04165 0.48479
 C2083 C 0.14973 -0.07051 0.49457
 C2084 C 0.08637 -0.04420 0.49488
 H2085 H 0.11410 -0.08908 0.51053
 H2086 H 0.07768 -0.07387 0.51134
 H2087 H 0.10100 -0.01708 0.47817
 H2088 H 0.13732 -0.03255 0.47753
 C2089 C 0.37619 -0.05713 0.50487
 C2090 C 0.37945 -0.03659 0.51361
 C2091 C 0.40007 -0.02746 0.51366
 C2092 C 0.33752 -0.07504 0.50396
 C2093 C 0.41427 -0.05955 0.49642
 C2094 C 0.39365 -0.06862 0.49640
 C2095 C 0.35498 -0.06653 0.50448
 C2096 C 0.41772 -0.03878 0.50493
 H2097 H 0.36605 -0.02758 0.52026
 H2098 H 0.40212 -0.01144 0.52033
 H2099 H 0.42744 -0.06873 0.48958
 H2100 H 0.39130 -0.08458 0.48965
 C2101 C -0.12409 0.44412 1.00354
 C2102 C -0.12083 0.46473 1.01213
 C2103 C -0.10020 0.47387 1.01208
 C2104 C -0.16256 0.42577 1.00347
 C2105 C -0.08606 0.44172 0.99492
 C2106 C -0.10667 0.43264 0.99499
 C2107 C -0.14521 0.43452 1.00358
 C2108 C -0.08256 0.46248 1.00343
 H2109 H -0.13420 0.47373 1.01884
 H2110 H -0.09812 0.48988 1.01876
 H2111 H -0.07290 0.43248 0.98812
 H2112 H -0.10902 0.41664 0.98835
 C2113 C -0.12991 0.55653 0.48980
 C2114 C -0.11241 0.56809 0.49812
 C2115 C -0.09181 0.55896 0.49821
 C2116 C -0.16877 0.57387 0.49219
 C2117 C -0.10610 0.52674 0.48126
 C2118 C -0.12670 0.53592 0.48121
 C2119 C -0.15119 0.56570 0.49077
 C2120 C -0.08843 0.53808 0.48998
 H2121 H -0.11472 0.58406 0.50482
 H2122 H -0.07862 0.56817 0.50502
 H2123 H -0.10410 0.51064 0.47479
 H2124 H -0.14015 0.52683 0.47473
 C2125 C 0.37156 1.05691 -0.01021
 C2126 C 0.38919 1.06840 -0.00207
 C2127 C 0.40968 1.05906 -0.00184
 C2128 C 0.33291 1.07472 -0.00802
 C2129 C 0.39505 1.02673 -0.01830
 C2130 C 0.37455 1.03613 -0.01849
 C2131 C 0.35039 1.06633 -0.00936
 C2132 C 0.41284 1.03801 -0.00976
 H2133 H 0.38705 1.08450 0.00439
 H2134 H 0.42296 1.06824 0.00481
 H2135 H 0.39688 1.01052 -0.02453
 H2136 H 0.36100 1.02709 -0.02482
 C2137 C 0.00407 1.12961 1.05937
 C2138 C -0.00524 1.11263 1.07096
 C2139 C -0.00532 1.09176 1.06244
 C2140 C 0.00283 1.16894 1.07581
 C2141 C 0.01341 1.10476 1.03069
 C2142 C 0.01346 1.12562 1.03927
 C2143 C 0.00363 1.15112 1.06807
 C2144 C 0.00391 1.08757 1.04214
 H2145 H -0.01256 1.11555 1.08654
 H2146 H -0.01275 1.07896 1.07170
 H2147 H 0.02067 1.10215 1.01504
 H2148 H 0.02071 1.13866 1.03016
 C2149 C 0.50659 0.62878 0.56095
 C2150 C 0.49741 0.61175 0.57257
 C2151 C 0.49685 0.59100 0.56377
 C2152 C 0.50520 0.66808 0.57747
 C2153 C 0.51501 0.60418 0.53178
 C2154 C 0.51554 0.62493 0.54062
 C2155 C 0.50616 0.65027 0.56973
 C2156 C 0.50546 0.58699 0.54316
 H2157 H 0.49043 0.61456 0.58833
 H2158 H 0.48940 0.57818 0.57301
 H2159 H 0.52181 0.60171 0.51589
 H2160 H 0.52267 0.63800 0.53149
 C2161 C -0.00858 0.62296 0.43914
 C2162 C -0.00016 0.60551 0.42758
 C2163 C -0.00062 0.58477 0.43639
 C2164 C -0.00656 0.66199 0.42206
 C2165 C -0.01827 0.59883 0.46831
 C2166 C -0.01777 0.61956 0.45945
 C2167 C -0.00760 0.64432 0.43012
 C2168 C -0.00954 0.58119 0.45695
 H2169 H 0.00694 0.60797 0.41182
 H2170 H 0.00622 0.57161 0.42718
 H2171 H -0.02525 0.59669 0.48416
 H2172 H -0.02439 0.63296 0.46851
 C2173 C 0.49251 1.12228 -0.06072
 C2174 C 0.50095 1.10479 -0.07221
 C2175 C 0.50054 1.08410 -0.06330
 C2176 C 0.49446 1.16119 -0.07800
 C2177 C 0.48291 1.09828 -0.03143
 C2178 C 0.48336 1.11897 -0.04039
 C2179 C 0.49345 1.14358 -0.06985
 C2180 C 0.49165 1.08061 -0.04271
 H2181 H 0.50802 1.10718 -0.08800
 H2182 H 0.50739 1.07091 -0.07245
 H2183 H 0.47594 1.09621 -0.01555
 H2184 H 0.47673 1.13240 -0.03139
 C2185 C 0.50740 0.36911 -0.05661
 C2186 C 0.51638 0.37245 -0.03618
 C2187 C 0.51648 0.39311 -0.02710
 C2188 C 0.50549 0.33028 -0.07411
 C2189 C 0.49880 0.40718 -0.05901
 C2190 C 0.49873 0.38653 -0.06803
 C2191 C 0.50664 0.34783 -0.06584
 C2192 C 0.50757 0.41072 -0.03837
 H2193 H 0.52313 0.35907 -0.02720
 H2194 H 0.52336 0.39522 -0.01119
 H2195 H 0.49182 0.42032 -0.06815
 H2196 H 0.49173 0.38412 -0.08386
 C2197 C 0.00914 -0.12988 0.44373
 C2198 C 0.01767 -0.12675 0.46438
 C2199 C 0.01778 -0.10613 0.47358
 C2200 C 0.00646 -0.16871 0.42626
 C2201 C 0.00114 -0.09168 0.44130
 C2202 C 0.00106 -0.11228 0.43216
 C2203 C 0.00801 -0.15116 0.43450
 C2204 C 0.00930 -0.08837 0.46222
 H2205 H 0.02396 -0.14027 0.47349
 H2206 H 0.02420 -0.10420 0.48971
 H2207 H -0.00549 -0.07842 0.43206
 H2208 H -0.00558 -0.11452 0.41615
 C2209 C 0.49571 -0.12330 0.55819
 C2210 C 0.50426 -0.10585 0.56967
 C2211 C 0.50428 -0.08522 0.56061
 C2212 C 0.49657 -0.16204 0.57597
 C2213 C 0.48691 -0.09940 0.52856
 C2214 C 0.48692 -0.12002 0.53768
 C2215 C 0.49607 -0.14453 0.56755
 C2216 C 0.49574 -0.08175 0.53986
 H2217 H 0.51105 -0.10822 0.58560
 H2218 H 0.51119 -0.07205 0.56977
 H2219 H 0.48020 -0.09734 0.51258
 H2220 H 0.48020 -0.13342 0.52869
 C2221 C -0.00186 0.37604 1.05646
 C2222 C 0.00749 0.39328 1.06762
 C2223 C 0.00747 0.41395 1.05865
 C2224 C -0.00190 0.33746 1.07457
 C2225 C -0.01138 0.40020 1.02726
 C2226 C -0.01133 0.37953 1.03629
 C2227 C -0.00193 0.35488 1.06596
 C2228 C -0.00195 0.41767 1.03833
 H2229 H 0.01480 0.39075 1.08329
 H2230 H 0.01487 0.42698 1.06763
 H2231 H -0.01877 0.40245 1.01160
 H2232 H -0.01867 0.36630 1.02755
 C2233 C 0.75811 0.30890 0.12415
 C2234 C 0.76721 0.28859 0.12777
 C2235 C 0.76686 0.27955 0.14843
 C2236 C 0.75775 0.32648 0.08530
 C2237 C 0.74851 0.31130 0.16197
 C2238 C 0.74889 0.32029 0.14131
 C2239 C 0.75805 0.31815 0.10287
 C2240 C 0.75736 0.29075 0.16577
 H2241 H 0.77443 0.27966 0.11461
 H2242 H 0.77383 0.26371 0.15074
 H2243 H 0.74108 0.32039 0.17490
 H2244 H 0.74185 0.33606 0.13868
 C2245 C 0.25805 0.80834 0.62495
 C2246 C 0.26723 0.78806 0.62856
 C2247 C 0.26704 0.77907 0.64923
 C2248 C 0.25731 0.82574 0.58606
 C2249 C 0.24871 0.81083 0.66282
 C2250 C 0.24893 0.81976 0.64214
 C2251 C 0.25778 0.81750 0.60365
 C2252 C 0.25762 0.79029 0.66660
 H2253 H 0.27437 0.77911 0.61536
 H2254 H 0.27404 0.76324 0.65153
 H2255 H 0.24134 0.81992 0.67578
 H2256 H 0.24183 0.83551 0.63952
 C2257 C 0.74619 0.69285 0.62230
 C2258 C 0.75454 0.68113 0.63967
 C2259 C 0.75442 0.68994 0.66038
 C2260 C 0.74667 0.67505 0.58362
 C2261 C 0.73741 0.72228 0.64645
 C2262 C 0.73756 0.71341 0.62572
 C2263 C 0.74638 0.68354 0.60108
 C2264 C 0.74590 0.71066 0.66404
 H2265 H 0.76120 0.66516 0.63718
 H2266 H 0.76109 0.68053 0.67350
 H2267 H 0.73074 0.73827 0.64866
 H2268 H 0.73100 0.72258 0.61238
 C2269 C 0.24621 0.19181 0.12090
 C2270 C 0.25444 0.18013 0.13835
 C2271 C 0.25406 0.18895 0.15908
 C2272 C 0.24725 0.17403 0.08217
 C2273 C 0.23704 0.22120 0.14497
 C2274 C 0.23745 0.21232 0.12424
 C2275 C 0.24671 0.18252 0.09965
 C2276 C 0.24542 0.20963 0.16265
 H2277 H 0.26121 0.16420 0.13594
 H2278 H 0.26066 0.17958 0.17226
 H2279 H 0.23028 0.23716 0.14711
 H2280 H 0.23098 0.22147 0.11083
 C2281 C 0.25565 0.19239 0.87565
 C2282 C 0.24689 0.18082 0.85837
 C2283 C 0.24696 0.18964 0.83763
 C2284 C 0.25391 0.17540 0.91471
 C2285 C 0.26479 0.22162 0.85138
 C2286 C 0.26469 0.21275 0.87211
 C2287 C 0.25494 0.18339 0.89703
 C2288 C 0.25580 0.21021 0.83389
 H2289 H 0.23984 0.16503 0.86094
 H2290 H 0.23991 0.18039 0.82460
 H2291 H 0.27174 0.23748 0.84911
 H2292 H 0.27151 0.22184 0.88539
 C2293 C 0.75553 0.69234 0.37623
 C2294 C 0.74731 0.68072 0.35873
 C2295 C 0.74747 0.68971 0.33808
 C2296 C 0.75348 0.67499 0.41509
 C2297 C 0.76433 0.72200 0.35235
 C2298 C 0.76413 0.71295 0.37301
 C2299 C 0.75467 0.68316 0.39750
 C2300 C 0.75586 0.71053 0.33465
 H2301 H 0.74060 0.66475 0.36107
 H2302 H 0.74084 0.68041 0.32487
 H2303 H 0.77091 0.73805 0.35032
 H2304 H 0.77053 0.72208 0.38646
 C2305 C 0.24595 0.80800 0.37730
 C2306 C 0.23618 0.78799 0.37369
 C2307 C 0.23570 0.77919 0.35293
 C2308 C 0.24817 0.82486 0.41640
 C2309 C 0.25465 0.81054 0.33927
 C2310 C 0.25509 0.81929 0.36003
 C2311 C 0.24694 0.81693 0.39869
 C2312 C 0.24505 0.79032 0.33546
 H2313 H 0.22905 0.77911 0.38695
 H2314 H 0.22817 0.76360 0.35062
 H2315 H 0.26198 0.81957 0.32625
 H2316 H 0.26270 0.83481 0.36265
 C2317 C 0.74685 0.30781 0.87802
 C2318 C 0.73731 0.28769 0.87437
 C2319 C 0.73699 0.27891 0.85359
 C2320 C 0.74883 0.32464 0.91718
 C2321 C 0.75561 0.31049 0.84001
 C2322 C 0.75590 0.31922 0.86079
 C2323 C 0.74770 0.31673 0.89945
 C2324 C 0.74624 0.29016 0.83615
 H2325 H 0.73025 0.27872 0.88759
 H2326 H 0.72964 0.26324 0.85125
 H2327 H 0.76287 0.31961 0.82701
 H2328 H 0.76333 0.33482 0.86344
 C2329 C 0.80823 0.37633 0.24267
 C2330 C 0.81974 0.35903 0.25146
 C2331 C 0.81076 0.33835 0.25166
 C2332 C 0.82578 0.41519 0.24331
 C2333 C 0.77874 0.35218 0.23399
 C2334 C 0.78777 0.37285 0.23382
 C2335 C 0.81748 0.39761 0.24289
 C2336 C 0.79007 0.33469 0.24306
 H2337 H 0.83562 0.36154 0.25831
 H2338 H 0.81995 0.32531 0.25876
 H2339 H 0.76280 0.34997 0.22722
 H2340 H 0.77875 0.38613 0.22693
 C2341 C 0.30853 0.87585 0.74339
 C2342 C 0.32005 0.85859 0.75227
 C2343 C 0.31110 0.83790 0.75250
 C2344 C 0.32603 0.91471 0.74386
 C2345 C 0.27912 0.85164 0.73469
 C2346 C 0.28811 0.87231 0.73449
 C2347 C 0.31775 0.89713 0.74354
 C2348 C 0.29045 0.83419 0.74384
 H2349 H 0.33590 0.86116 0.75916
 H2350 H 0.32029 0.82489 0.75966
 H2351 H 0.26320 0.84939 0.72787
 H2352 H 0.27909 0.88556 0.72752
 C2353 C 0.19204 0.87783 0.25454
 C2354 C 0.18052 0.86055 0.24573
 C2355 C 0.18931 0.83981 0.24586
 C2356 C 0.17418 0.91652 0.25417
 C2357 C 0.22124 0.85357 0.26377
 C2358 C 0.21239 0.87431 0.26361
 C2359 C 0.18272 0.89906 0.25440
 C2360 C 0.20981 0.83606 0.25485
 H2361 H 0.16471 0.86310 0.23872
 H2362 H 0.18005 0.82676 0.23885
 H2363 H 0.23706 0.85128 0.27081
 H2364 H 0.22141 0.88759 0.27053
 C2365 C 0.69266 0.37733 0.75454
 C2366 C 0.68123 0.35987 0.74596
 C2367 C 0.69016 0.33919 0.74634
 C2368 C 0.67477 0.41598 0.75347
 C2369 C 0.72201 0.35335 0.76406
 C2370 C 0.71303 0.37403 0.76365
 C2371 C 0.68328 0.39853 0.75403
 C2372 C 0.71070 0.33567 0.75533
 H2373 H 0.66542 0.36224 0.73892
 H2374 H 0.68098 0.32600 0.73947
 H2375 H 0.73786 0.35124 0.77109
 H2376 H 0.72199 0.38745 0.77039
 C2377 C 0.69247 0.62365 0.74470
 C2378 C 0.68127 0.64099 0.75381
 C2379 C 0.69025 0.66165 0.75363
 C2380 C 0.67511 0.58476 0.74649
 C2381 C 0.72167 0.64775 0.73502
 C2382 C 0.71264 0.62708 0.73523
 C2383 C 0.68327 0.60237 0.74544
 C2384 C 0.71063 0.66528 0.74433
 H2385 H 0.66563 0.63850 0.76118
 H2386 H 0.68128 0.67473 0.76092
 H2387 H 0.73738 0.64993 0.72772
 H2388 H 0.72144 0.61376 0.72813
 C2389 C 0.19210 0.12267 0.24424
 C2390 C 0.21226 0.12609 0.23474
 C2391 C 0.22119 0.14681 0.23427
 C2392 C 0.17498 0.08369 0.24664
 C2393 C 0.18966 0.16078 0.25265
 C2394 C 0.18079 0.14006 0.25309
 C2395 C 0.18304 0.10133 0.24530
 C2396 C 0.21003 0.16440 0.24335
 H2397 H 0.22116 0.11273 0.22785
 H2398 H 0.23689 0.14899 0.22698
 H2399 H 0.18060 0.17390 0.25977
 H2400 H 0.16516 0.13759 0.26048
 C2401 C 0.30836 0.12340 0.75337
 C2402 C 0.31992 0.14078 0.74480
 C2403 C 0.31105 0.16150 0.74492
 C2404 C 0.32544 0.08436 0.75163
 C2405 C 0.27901 0.14757 0.76242
 C2406 C 0.28793 0.12685 0.76227
 C2407 C 0.31742 0.10205 0.75265
 C2408 C 0.29042 0.16515 0.75363
 H2409 H 0.33576 0.13829 0.73786
 H2410 H 0.32031 0.17461 0.73802
 H2411 H 0.26310 0.14975 0.76926
 H2412 H 0.27884 0.11351 0.76895
 C2413 C 0.80815 0.62405 0.25357
 C2414 C 0.81946 0.64131 0.24441
 C2415 C 0.81067 0.66206 0.24467
 C2416 C 0.82510 0.58495 0.25177
 C2417 C 0.77923 0.64840 0.26344
 C2418 C 0.78807 0.62765 0.26316
 C2419 C 0.81714 0.60266 0.25281
 C2420 C 0.79038 0.66586 0.25410
 H2421 H 0.83503 0.63869 0.23695
 H2422 H 0.81971 0.67508 0.23734
 H2423 H 0.76360 0.65071 0.27085
 H2424 H 0.77918 0.61441 0.27029
 C2425 C 0.87524 0.25786 0.19083
 C2426 C 0.85800 0.24892 0.17932
 C2427 C 0.83735 0.24852 0.18832
 C2428 C 0.91404 0.25768 0.17326
 C2429 C 0.85109 0.26626 0.22035
 C2430 C 0.87173 0.26663 0.21130
 C2431 C 0.89648 0.25788 0.18156
 C2432 C 0.83366 0.25707 0.20902
 H2433 H 0.86054 0.24213 0.16343
 H2434 H 0.82435 0.24134 0.17913
 H2435 H 0.84887 0.27300 0.23631
 H2436 H 0.88496 0.27364 0.22032
 C2437 C 0.37577 0.75676 0.69189
 C2438 C 0.37222 0.76568 0.71229
 C2439 C 0.35154 0.76550 0.72124
 C2440 C 0.41466 0.75628 0.67450
 C2441 C 0.33783 0.74768 0.68924
 C2442 C 0.35852 0.74789 0.68034
 C2443 C 0.39706 0.75660 0.68272
 C2444 C 0.33410 0.75636 0.70988
 H2445 H 0.38546 0.77264 0.72134
 H2446 H 0.34929 0.77233 0.73715
 H2447 H 0.32482 0.74054 0.68003
 H2448 H 0.36110 0.74100 0.66449
 C2449 C 0.37738 0.24624 0.80556
 C2450 C 0.36024 0.25561 0.81681
 C2451 C 0.33951 0.25553 0.80799
 C2452 C 0.41601 0.24623 0.82354
 C2453 C 0.35301 0.23660 0.77656
 C2454 C 0.37374 0.23671 0.78544
 C2455 C 0.39858 0.24619 0.81496
 C2456 C 0.33563 0.24604 0.78774
 H2457 H 0.36289 0.26297 0.83244
 H2458 H 0.32656 0.26294 0.81705
 H2459 H 0.35063 0.22916 0.76095
 H2460 H 0.38690 0.22934 0.77664
 C2461 C 0.87750 0.74687 0.30781
 C2462 C 0.86012 0.75559 0.31922
 C2463 C 0.83945 0.75543 0.31026
 C2464 C 0.91609 0.74727 0.32592
 C2465 C 0.85345 0.73767 0.27838
 C2466 C 0.87413 0.73786 0.28740
 C2467 C 0.89867 0.74703 0.31729
 C2468 C 0.83585 0.74650 0.28970
 H2469 H 0.86255 0.76255 0.33507
 H2470 H 0.82633 0.76237 0.31944
 H2471 H 0.85129 0.73068 0.26253
 H2472 H 0.88747 0.73100 0.27846
 C2473 C 0.12236 0.75572 0.30830
 C2474 C 0.12576 0.76444 0.28778
 C2475 C 0.14649 0.76467 0.27890
 C2476 C 0.08333 0.75359 0.32530
 C2477 C 0.16050 0.74764 0.31119
 C2478 C 0.13978 0.74744 0.32001
 C2479 C 0.10100 0.75481 0.31730
 C2480 C 0.16410 0.75614 0.29045
 H2481 H 0.11238 0.77088 0.27858
 H2482 H 0.14864 0.77133 0.26291
 H2483 H 0.17363 0.74096 0.32055
 H2484 H 0.13731 0.74065 0.33592
 C2485 C 0.62404 0.25487 0.80892
 C2486 C 0.64146 0.24654 0.82059
 C2487 C 0.66218 0.24679 0.81176
 C2488 C 0.58499 0.25272 0.82583
 C2489 C 0.64815 0.26396 0.77956
 C2490 C 0.62743 0.26368 0.78844
 C2491 C 0.60268 0.25394 0.81790
 C2492 C 0.66577 0.25539 0.79106
 H2493 H 0.63900 0.23968 0.83647
 H2494 H 0.67532 0.24007 0.82108
 H2495 H 0.65029 0.27071 0.76360
 H2496 H 0.61405 0.27017 0.77927
 C2497 C 0.62375 0.74646 0.69175
 C2498 C 0.64104 0.75528 0.68024
 C2499 C 0.66181 0.75500 0.68898
 C2500 C 0.58458 0.74846 0.67499
 C2501 C 0.64811 0.73683 0.72076
 C2502 C 0.62735 0.73715 0.71197
 C2503 C 0.60233 0.74732 0.68285
 C2504 C 0.66560 0.74587 0.70941
 H2505 H 0.63842 0.76254 0.66456
 H2506 H 0.67485 0.76209 0.67979
 H2507 H 0.65041 0.72967 0.73651
 H2508 H 0.61408 0.73027 0.72101
 C2509 C 0.12289 0.24549 0.19020
 C2510 C 0.14022 0.25413 0.17862
 C2511 C 0.16100 0.25380 0.18735
 C2512 C 0.08373 0.24786 0.17349
 C2513 C 0.14722 0.23591 0.21925
 C2514 C 0.12645 0.23628 0.21047
 C2515 C 0.10147 0.24653 0.18134
 C2516 C 0.16475 0.24480 0.20785
 H2517 H 0.13764 0.26131 0.16290
 H2518 H 0.17406 0.26077 0.17811
 H2519 H 0.14949 0.22885 0.23506
 H2520 H 0.11315 0.22955 0.21958
 C2521 C -0.05928 0.99538 0.87702
 C2522 C -0.03885 0.98648 0.88050
 C2523 C -0.03023 0.98572 0.90134
 C2524 C -0.07589 0.99836 0.83784
 C2525 C -0.06268 1.00241 0.91532
 C2526 C -0.07124 1.00313 0.89449
 C2527 C -0.06800 0.99687 0.85555
 C2528 C -0.04195 0.99390 0.91899
 H2529 H -0.02948 0.98037 0.86709
 H2530 H -0.01423 0.97908 0.90354
 H2531 H -0.07216 1.00885 0.92848
 H2532 H -0.08711 1.00999 0.89199
 C2533 C 0.44026 0.49910 0.37568
 C2534 C 0.46062 0.49005 0.37919
 C2535 C 0.46919 0.48920 0.40005
 C2536 C 0.42324 0.50100 0.33663
 C2537 C 0.43691 0.50628 0.41396
 C2538 C 0.42840 0.50710 0.39311
 C2539 C 0.43135 0.50010 0.35428
 C2540 C 0.45747 0.49741 0.41769
 H2541 H 0.46991 0.48374 0.36582
 H2542 H 0.48506 0.48228 0.40230
 H2543 H 0.42743 0.51276 0.42711
 H2544 H 0.41258 0.51407 0.39057
 C2545 C 0.55891 0.00357 0.37070
 C2546 C 0.53861 0.01286 0.37392
 C2547 C 0.52987 0.01405 0.39468
 C2548 C 0.57648 0.00213 0.33189
 C2549 C 0.56186 -0.00320 0.40907
 C2550 C 0.57053 -0.00437 0.38833
 C2551 C 0.56817 0.00262 0.34945
 C2552 C 0.54138 0.00597 0.41252
 H2553 H 0.52953 0.01917 0.36039
 H2554 H 0.51406 0.02117 0.39672
 H2555 H 0.57118 -0.00961 0.42238
 H2556 H 0.58632 -0.01148 0.38603
 C2557 C 0.06004 0.50626 0.87173
 C2558 C 0.03956 0.51516 0.87493
 C2559 C 0.03093 0.51648 0.89573
 C2560 C 0.07691 0.50352 0.83266
 C2561 C 0.06344 0.50032 0.91021
 C2562 C 0.07202 0.49903 0.88943
 C2563 C 0.06895 0.50466 0.85036
 C2564 C 0.04269 0.50890 0.91362
 H2565 H 0.03020 0.52092 0.86135
 H2566 H 0.01491 0.52313 0.89772
 H2567 H 0.07296 0.49431 0.92356
 H2568 H 0.08794 0.49222 0.88714
 C2569 C 0.05160 0.49442 0.62596
 C2570 C 0.06354 0.50160 0.60825
 C2571 C 0.05486 0.50050 0.58752
 C2572 C 0.06974 0.49733 0.66443
 C2573 C 0.02217 0.48474 0.60203
 C2574 C 0.03093 0.48588 0.62283
 C2575 C 0.06089 0.49587 0.64718
 C2576 C 0.03401 0.49216 0.58413
 H2577 H 0.07958 0.50817 0.61047
 H2578 H 0.06447 0.50636 0.57417
 H2579 H 0.00608 0.47827 0.60002
 H2580 H 0.02157 0.48021 0.63643
 C2581 C 0.55250 0.99436 0.12655
 C2582 C 0.56457 1.00116 0.10878
 C2583 C 0.55590 0.99992 0.08806
 C2584 C 0.57058 0.99770 0.16501
 C2585 C 0.52298 0.98476 0.10271
 C2586 C 0.53174 0.98604 0.12350
 C2587 C 0.56176 0.99603 0.14776
 C2588 C 0.53494 0.99183 0.08474
 H2589 H 0.58069 1.00755 0.11095
 H2590 H 0.56560 1.00549 0.07466
 H2591 H 0.50680 0.97850 0.10076
 H2592 H 0.52228 0.98067 0.13717
 C2593 C 0.44426 0.50039 0.12911
 C2594 C 0.43293 0.49182 0.11159
 C2595 C 0.44187 0.49238 0.09093
 C2596 C 0.42614 0.49981 0.16771
 C2597 C 0.47354 0.51034 0.10517
 C2598 C 0.46453 0.50975 0.12585
 C2599 C 0.43474 0.49995 0.15028
 C2600 C 0.46234 0.50156 0.08745
 H2601 H 0.41716 0.48465 0.11391
 H2602 H 0.43277 0.48545 0.07773
 H2603 H 0.48933 0.51751 0.10311
 H2604 H 0.47340 0.51656 0.13929
 C2605 C -0.05481 -0.00168 0.63104
 C2606 C -0.06601 -0.01076 0.61368
 C2607 C -0.05728 -0.01005 0.59292
 C2608 C -0.07277 -0.00168 0.66974
 C2609 C -0.02604 0.00894 0.60677
 C2610 C -0.03483 0.00821 0.62754
 C2611 C -0.06426 -0.00190 0.65225
 C2612 C -0.03717 -0.00019 0.58918
 H2613 H -0.08156 -0.01834 0.61618
 H2614 H -0.06630 -0.01728 0.57983
 H2615 H -0.01053 0.01663 0.60453
 H2616 H -0.02608 0.01541 0.64084
 C2617 C -0.12855 0.94459 0.99915
 C2618 C -0.12518 0.96478 0.98964
 C2619 C -0.10444 0.97367 0.98894
 C2620 C -0.16726 0.92667 0.99988
 C2621 C -0.09036 0.94204 1.00710
 C2622 C -0.11108 0.93322 1.00777
 C2623 C -0.14977 0.93518 0.99969
 C2624 C -0.08677 0.96244 0.99776
 H2625 H -0.13857 0.97366 0.98279
 H2626 H -0.10231 0.98940 0.98166
 H2627 H -0.07719 0.93293 1.01407
 H2628 H -0.11347 0.91751 1.01505
 C2629 C 0.36933 0.44493 0.50075
 C2630 C 0.37268 0.46496 0.49089
 C2631 C 0.39336 0.47397 0.49023
 C2632 C 0.33084 0.42651 0.50075
 C2633 C 0.40742 0.44284 0.50925
 C2634 C 0.38675 0.43390 0.50988
 C2635 C 0.34822 0.43525 0.50092
 C2636 C 0.41102 0.46300 0.49941
 H2637 H 0.35932 0.47359 0.48365
 H2638 H 0.39550 0.48951 0.48256
 H2639 H 0.42057 0.43394 0.51651
 H2640 H 0.38437 0.41833 0.51745
 C2641 C 0.37488 0.55282 0.00741
 C2642 C 0.39263 0.56493 0.00059
 C2643 C 0.41333 0.55613 0.00140
 C2644 C 0.33631 0.57072 0.00435
 C2645 C 0.39869 0.52306 0.01626
 C2646 C 0.37794 0.53193 0.01542
 C2647 C 0.35364 0.56205 0.00592
 C2648 C 0.41662 0.53500 0.00905
 H2649 H 0.39046 0.58114 -0.00556
 H2650 H 0.42671 0.56582 -0.00425
 H2651 H 0.40062 0.50676 0.02221
 H2652 H 0.36430 0.52244 0.02080
 C2653 C -0.12581 0.05251 0.50599
 C2654 C -0.10802 0.06436 0.49885
 C2655 C -0.08737 0.05553 0.49991
 C2656 C -0.16416 0.07089 0.50310
 C2657 C -0.10212 0.02287 0.51554
 C2658 C -0.12284 0.03179 0.51445
 C2659 C -0.14696 0.06195 0.50456
 C2660 C -0.08413 0.03462 0.50815
 H2661 H -0.11013 0.08045 0.49235
 H2662 H -0.07396 0.06508 0.49408
 H2663 H -0.10022 0.00673 0.52194
 H2664 H -0.13652 0.02250 0.52008
 C2665 C 0.62943 0.05902 0.49750
 C2666 C 0.61172 0.07085 0.50488
 C2667 C 0.59096 0.06221 0.50353
 C2668 C 0.66828 0.07650 0.49938
 C2669 C 0.60552 0.02980 0.48720
 C2670 C 0.62629 0.03852 0.48857
 C2671 C 0.65070 0.06822 0.49867
 C2672 C 0.58759 0.04153 0.49473
 H2673 H 0.61395 0.08679 0.51170
 H2674 H 0.57759 0.07170 0.50951
 H2675 H 0.60354 0.01385 0.48037
 H2676 H 0.63988 0.02926 0.48270
 C2677 C 0.12963 0.55941 0.99486
 C2678 C 0.11205 0.57120 1.00265
 C2679 C 0.09124 0.56266 1.00141
 C2680 C 0.16871 0.57634 0.99727
 C2681 C 0.10543 0.53055 0.98422
 C2682 C 0.12626 0.53915 0.98549
 C2683 C 0.15101 0.56833 0.99628
 C2684 C 0.08767 0.54214 0.99233
 H2685 H 0.11446 0.58696 1.00982
 H2686 H 0.07799 0.57205 1.00783
 H2687 H 0.10331 0.51472 0.97716
 H2688 H 0.13974 0.52994 0.97929
 C2689 C 0.12318 0.44057 0.50047
 C2690 C 0.11976 0.46097 0.50948
 C2691 C 0.09891 0.46949 0.51060
 C2692 C 0.16220 0.42361 0.49792
 C2693 C 0.08481 0.43706 0.49389
 C2694 C 0.10565 0.42860 0.49280
 C2695 C 0.14458 0.43170 0.49912
 C2696 C 0.08117 0.45767 0.50270
 H2697 H 0.13322 0.47034 0.51553
 H2698 H 0.09673 0.48540 0.51746
 H2699 H 0.07159 0.42750 0.48765
 H2700 H 0.10811 0.41275 0.48586
 C2701 C 0.62431 0.94038 0.00132
 C2702 C 0.62074 0.96069 0.01047
 C2703 C 0.59984 0.96909 0.01156
 C2704 C 0.66346 0.92372 -0.00111
 C2705 C 0.58598 0.93672 -0.00547
 C2706 C 0.60688 0.92838 -0.00653
 C2707 C 0.64576 0.93167 0.00003
 C2708 C 0.58220 0.95725 0.00348
 H2709 H 0.63412 0.97008 0.01667
 H2710 H 0.59756 0.98494 0.01853
 H2711 H 0.57283 0.92716 -0.01185
 H2712 H 0.60945 0.91260 -0.01357
 C2713 C -0.00670 0.87459 0.94682
 C2714 C -0.01459 0.87768 0.96774
 C2715 C -0.01546 0.89846 0.97655
 C2716 C -0.00346 0.83598 0.92901
 C2717 C -0.00085 0.91308 0.94338
 C2718 C -0.00003 0.89235 0.93464
 C2719 C -0.00513 0.85332 0.93766
 C2720 C -0.00838 0.91640 0.96453
 H2721 H -0.01985 0.86403 0.97729
 H2722 H -0.02130 0.90042 0.99289
 H2723 H 0.00469 0.92646 0.93362
 H2724 H 0.00604 0.89015 0.91840
 C2725 C 0.49397 0.37444 0.44709
 C2726 C 0.48554 0.37751 0.46779
 C2727 C 0.48448 0.39828 0.47661
 C2728 C 0.49678 0.33600 0.42889
 C2729 C 0.50008 0.41288 0.44389
 C2730 C 0.50111 0.39217 0.43515
 C2731 C 0.49536 0.35324 0.43775
 C2732 C 0.49186 0.41622 0.46478
 H2733 H 0.47990 0.36387 0.47714
 H2734 H 0.47810 0.40025 0.49274
 H2735 H 0.50591 0.42625 0.43428
 H2736 H 0.50759 0.38998 0.41908
 C2737 C -0.00206 0.36935 0.55531
 C2738 C -0.01117 0.38679 0.56634
 C2739 C -0.01049 0.40748 0.55743
 C2740 C -0.00207 0.33083 0.57369
 C2741 C 0.00854 0.39343 0.52634
 C2742 C 0.00783 0.37272 0.53531
 C2743 C -0.00225 0.34822 0.56496
 C2744 C -0.00062 0.41109 0.53730
 H2745 H -0.01876 0.38440 0.58189
 H2746 H -0.01774 0.42063 0.56634
 H2747 H 0.01623 0.39557 0.51082
 H2748 H 0.01506 0.35936 0.52668
 C2749 C 0.49814 0.86891 0.05586
 C2750 C 0.50812 0.87223 0.03590
 C2751 C 0.50906 0.89296 0.02698
 C2752 C 0.49764 0.83031 0.07409
 C2753 C 0.49008 0.90712 0.05806
 C2754 C 0.48917 0.88641 0.06691
 C2755 C 0.49767 0.84775 0.06544
 C2756 C 0.50003 0.91068 0.03796
 H2757 H 0.51524 0.85882 0.02726
 H2758 H 0.51680 0.89506 0.01149
 H2759 H 0.48293 0.92032 0.06697
 H2760 H 0.48152 0.88405 0.08243
 C2761 C 0.49549 0.62205 0.06062
 C2762 C 0.50327 0.60451 0.07249
 C2763 C 0.50262 0.58372 0.06378
 C2764 C 0.49816 0.66112 0.07756
 C2765 C 0.48599 0.59789 0.03136
 C2766 C 0.48667 0.61868 0.04013
 C2767 C 0.49683 0.64346 0.06952
 C2768 C 0.49417 0.58017 0.04301
 H2769 H 0.51007 0.60692 0.08841
 H2770 H 0.50906 0.57051 0.07322
 H2771 H 0.47939 0.59578 0.01533
 H2772 H 0.48054 0.63214 0.03083
 C2773 C -0.00105 0.12367 0.55938
 C2774 C 0.00695 0.10627 0.57129
 C2775 C 0.00608 0.08538 0.56287
 C2776 C 0.00094 0.16281 0.57625
 C2777 C -0.01104 0.09920 0.53055
 C2778 C -0.01014 0.12010 0.53904
 C2779 C -0.00000 0.14512 0.56821
 C2780 C -0.00284 0.08158 0.54233
 H2781 H 0.01396 0.10885 0.58710
 H2782 H 0.01256 0.07225 0.57239
 H2783 H -0.01800 0.09691 0.51470
 H2784 H -0.01645 0.13345 0.52971
 C2785 C 0.50290 0.12950 0.44109
 C2786 C 0.49478 0.11185 0.42964
 C2787 C 0.49617 0.09110 0.43831
 C2788 C 0.50087 0.16833 0.42357
 C2789 C 0.51403 0.10556 0.46995
 C2790 C 0.51262 0.12632 0.46121
 C2791 C 0.50165 0.15076 0.43186
 C2792 C 0.50575 0.08769 0.45862
 H2793 H 0.48734 0.11411 0.41399
 H2794 H 0.48959 0.07777 0.42913
 H2795 H 0.52146 0.10356 0.48562
 H2796 H 0.51907 0.13988 0.47016
 C2797 C 0.00552 0.62977 0.94104
 C2798 C -0.00227 0.61216 0.92928
 C2799 C -0.00104 0.59135 0.93785
 C2800 C 0.00331 0.66881 0.92399
 C2801 C 0.01611 0.60563 0.96995
 C2802 C 0.01486 0.62645 0.96132
 C2803 C 0.00419 0.65113 0.93206
 C2804 C 0.00803 0.58783 0.95837
 H2805 H -0.00940 0.61452 0.91350
 H2806 H -0.00744 0.57807 0.92847
 H2807 H 0.02315 0.60354 0.98580
 H2808 H 0.02106 0.63996 0.97051
 C2809 C 0.24900 0.69317 0.87857
 C2810 C 0.25615 0.68126 0.86082
 C2811 C 0.25467 0.68985 0.84007
 C2812 C 0.25249 0.67556 0.91723
 C2813 C 0.23854 0.72233 0.85469
 C2814 C 0.24006 0.71366 0.87548
 C2815 C 0.25082 0.68407 0.89983
 C2816 C 0.24596 0.71056 0.83673
 H2817 H 0.26301 0.66534 0.86303
 H2818 H 0.26054 0.68031 0.82668
 H2819 H 0.23180 0.73832 0.85272
 H2820 H 0.23440 0.72298 0.88912
 C2821 C 0.74847 0.19378 0.37790
 C2822 C 0.73949 0.21425 0.37474
 C2823 C 0.73802 0.22289 0.35393
 C2824 C 0.75194 0.17629 0.41664
 C2825 C 0.75428 0.19045 0.33941
 C2826 C 0.75572 0.18188 0.36018
 C2827 C 0.75027 0.18473 0.39920
 C2828 C 0.74553 0.21112 0.33601
 H2829 H 0.73376 0.22358 0.38836
 H2830 H 0.73124 0.23886 0.35193
 H2831 H 0.76023 0.18091 0.32605
 H2832 H 0.76262 0.16598 0.36243
 C2833 C 0.25536 0.30659 0.37483
 C2834 C 0.26407 0.28603 0.37159
 C2835 C 0.26492 0.27723 0.35082
 C2836 C 0.25228 0.32396 0.41366
 C2837 C 0.24866 0.30974 0.33645
 C2838 C 0.24785 0.31848 0.35719
 C2839 C 0.25385 0.31563 0.39616
 C2840 C 0.25702 0.28891 0.33300
 H2841 H 0.27000 0.27671 0.38513
 H2842 H 0.27145 0.26116 0.34879
 H2843 H 0.24245 0.31922 0.32316
 H2844 H 0.24114 0.33445 0.35950
 C2845 C 0.75653 0.80664 0.87648
 C2846 C 0.76507 0.78601 0.87320
 C2847 C 0.76593 0.77731 0.85239
 C2848 C 0.75339 0.82393 0.91530
 C2849 C 0.75003 0.81005 0.83810
 C2850 C 0.74921 0.81869 0.85887
 C2851 C 0.75499 0.81559 0.89782
 C2852 C 0.75820 0.78916 0.83460
 H2853 H 0.77084 0.77658 0.88672
 H2854 H 0.77231 0.76119 0.85031
 H2855 H 0.74396 0.81966 0.82484
 H2856 H 0.74264 0.83471 0.86123
 C2857 C 0.74595 0.80853 0.12300
 C2858 C 0.73670 0.78820 0.12625
 C2859 C 0.73574 0.77937 0.14700
 C2860 C 0.74764 0.82598 0.08412
 C2861 C 0.75303 0.81139 0.16134
 C2862 C 0.75396 0.82015 0.14060
 C2863 C 0.74698 0.81773 0.10171
 C2864 C 0.74404 0.79082 0.16480
 H2865 H 0.73034 0.77911 0.11275
 H2866 H 0.72875 0.76350 0.14904
 H2867 H 0.75958 0.82067 0.17460
 H2868 H 0.76103 0.83597 0.13829
 C2869 C 0.24432 0.30801 0.62199
 C2870 C 0.23554 0.28748 0.62535
 C2871 C 0.23481 0.27873 0.64614
 C2872 C 0.24580 0.32521 0.58297
 C2873 C 0.25137 0.31119 0.66032
 C2874 C 0.25207 0.31989 0.63954
 C2875 C 0.24522 0.31708 0.60063
 C2876 C 0.24287 0.29042 0.66388
 H2877 H 0.22939 0.27819 0.61189
 H2878 H 0.22820 0.26270 0.64825
 H2879 H 0.25773 0.32067 0.67354
 H2880 H 0.25879 0.33584 0.63715
 C2881 C 0.75585 0.19249 0.62411
 C2882 C 0.74762 0.18091 0.64161
 C2883 C 0.74818 0.18976 0.66233
 C2884 C 0.75482 0.17482 0.58529
 C2885 C 0.76548 0.22182 0.64816
 C2886 C 0.76489 0.21291 0.62743
 C2887 C 0.75521 0.18318 0.60284
 C2888 C 0.75701 0.21039 0.66586
 H2889 H 0.74068 0.16504 0.63925
 H2890 H 0.74150 0.18048 0.67552
 H2891 H 0.77236 0.23774 0.65026
 H2892 H 0.77141 0.22198 0.61400
 C2893 C 0.25392 0.69185 0.12381
 C2894 C 0.24554 0.68047 0.14138
 C2895 C 0.24607 0.68948 0.16201
 C2896 C 0.25312 0.67374 0.08521
 C2897 C 0.26363 0.72133 0.14766
 C2898 C 0.26307 0.71224 0.12700
 C2899 C 0.25339 0.68232 0.10266
 C2900 C 0.25503 0.71008 0.16541
 H2901 H 0.23852 0.66462 0.13911
 H2902 H 0.23929 0.68034 0.17525
 H2903 H 0.27061 0.73721 0.14966
 H2904 H 0.26971 0.72115 0.11352
 C2905 C 0.19370 0.62206 0.75112
 C2906 C 0.21433 0.62509 0.75977
 C2907 C 0.22296 0.64589 0.76145
 C2908 C 0.17609 0.58341 0.74742
 C2909 C 0.19018 0.66065 0.74607
 C2910 C 0.18163 0.63989 0.74442
 C2911 C 0.18461 0.60080 0.74917
 C2912 C 0.21102 0.66393 0.75449
 H2913 H 0.22377 0.61139 0.76509
 H2914 H 0.23904 0.64781 0.76797
 H2915 H 0.18051 0.67410 0.74055
 H2916 H 0.16560 0.63773 0.73779
 C2917 C 0.69309 0.12254 0.25121
 C2918 C 0.71370 0.12562 0.25988
 C2919 C 0.72241 0.14641 0.26128
 C2920 C 0.67534 0.08388 0.24808
 C2921 C 0.68977 0.16106 0.24553
 C2922 C 0.68113 0.14031 0.24416
 C2923 C 0.68391 0.10128 0.24958
 C2924 C 0.71058 0.16439 0.25400
 H2925 H 0.72306 0.11196 0.26546
 H2926 H 0.73847 0.14836 0.26786
 H2927 H 0.68018 0.17447 0.23977
 H2928 H 0.66512 0.13812 0.23750
 C2929 C 0.80908 0.12403 0.74536
 C2930 C 0.82107 0.14176 0.75251
 C2931 C 0.81227 0.16249 0.75171
 C2932 C 0.82638 0.08517 0.74857
 C2933 C 0.77951 0.14790 0.73614
 C2934 C 0.78836 0.12715 0.73698
 C2935 C 0.81811 0.10270 0.74695
 C2936 C 0.79128 0.16581 0.74371
 H2937 H 0.83715 0.13953 0.75897
 H2938 H 0.82183 0.17585 0.75766
 H2939 H 0.76331 0.14984 0.72991
 H2940 H 0.77896 0.11354 0.73135
 C2941 C 0.30632 0.62360 0.24440
 C2942 C 0.31845 0.64121 0.25159
 C2943 C 0.30979 0.66199 0.25092
 C2944 C 0.32356 0.58471 0.24727
 C2945 C 0.27686 0.64769 0.23543
 C2946 C 0.28558 0.62688 0.23614
 C2947 C 0.31527 0.60223 0.24579
 C2948 C 0.28879 0.66548 0.24303
 H2949 H 0.33456 0.63885 0.25795
 H2950 H 0.31946 0.67526 0.25689
 H2951 H 0.26065 0.64976 0.22929
 H2952 H 0.27607 0.61335 0.23047
 C2953 C 0.30786 0.37642 0.25256
 C2954 C 0.31944 0.35893 0.24426
 C2955 C 0.31070 0.33816 0.24494
 C2956 C 0.32525 0.41539 0.25147
 C2957 C 0.27877 0.35223 0.26252
 C2958 C 0.28757 0.37301 0.26181
 C2959 C 0.31704 0.39775 0.25184
 C2960 C 0.29019 0.33455 0.25398
 H2961 H 0.33521 0.36136 0.23717
 H2962 H 0.31995 0.32498 0.23820
 H2963 H 0.26294 0.35008 0.26956
 H2964 H 0.27851 0.38641 0.26839
 C2965 C 0.80910 0.87692 0.75414
 C2966 C 0.78883 0.87355 0.76345
 C2967 C 0.78001 0.85278 0.76420
 C2968 C 0.82657 0.91586 0.75300
 C2969 C 0.81189 0.83865 0.74657
 C2970 C 0.82064 0.85941 0.74584
 C2971 C 0.81832 0.89824 0.75339
 C2972 C 0.79139 0.83507 0.75565
 H2973 H 0.77980 0.88697 0.77004
 H2974 H 0.76420 0.85065 0.77127
 H2975 H 0.82111 0.82546 0.73981
 H2976 H 0.83641 0.86182 0.73871
 C2977 C 0.69230 0.87773 0.24527
 C2978 C 0.68079 0.86015 0.25347
 C2979 C 0.68968 0.83946 0.25282
 C2980 C 0.67450 0.91648 0.24638
 C2981 C 0.72164 0.85379 0.23548
 C2982 C 0.71268 0.87450 0.23616
 C2983 C 0.68292 0.89896 0.24596
 C2984 C 0.71028 0.83602 0.24392
 H2985 H 0.66494 0.86245 0.26044
 H2986 H 0.68046 0.82621 0.25947
 H2987 H 0.73753 0.85176 0.22856
 H2988 H 0.72169 0.88799 0.22966
 C2989 C 0.19202 0.37679 0.74372
 C2990 C 0.18060 0.35912 0.75183
 C2991 C 0.18961 0.33849 0.75112
 C2992 C 0.17397 0.41542 0.74511
 C2993 C 0.22152 0.35305 0.73388
 C2994 C 0.21244 0.37371 0.73462
 C2995 C 0.18253 0.39796 0.74455
 C2996 C 0.21025 0.33519 0.74226
 H2997 H 0.16474 0.36130 0.75880
 H2998 H 0.18045 0.32517 0.75772
 H2999 H 0.23743 0.35113 0.72698
 H3000 H 0.22138 0.38728 0.72819
 C3001 C 0.12249 0.74895 0.80735
 C3002 C 0.14023 0.75640 0.81912
 C3003 C 0.16098 0.75479 0.81057
 C3004 C 0.08382 0.75271 0.82484
 C3005 C 0.14638 0.73795 0.77843
 C3006 C 0.12559 0.73960 0.78705
 C3007 C 0.10123 0.75092 0.81639
 C3008 C 0.16433 0.74567 0.79005
 H3009 H 0.13802 0.76358 0.83489
 H3010 H 0.17436 0.76090 0.81998
 H3011 H 0.14835 0.73089 0.76259
 H3012 H 0.11196 0.73371 0.77785
 C3013 C 0.62204 0.24890 0.30652
 C3014 C 0.62523 0.23948 0.28626
 C3015 C 0.64603 0.23801 0.27763
 C3016 C 0.58331 0.25228 0.32396
 C3017 C 0.66047 0.25516 0.30967
 C3018 C 0.63971 0.25660 0.31823
 C3019 C 0.60075 0.25066 0.31555
 C3020 C 0.66390 0.24596 0.28920
 H3021 H 0.61165 0.23339 0.27709
 H3022 H 0.64806 0.23088 0.26182
 H3023 H 0.67379 0.26146 0.31904
 H3024 H 0.63743 0.26384 0.33396
 C3025 C 0.62372 0.75583 0.19230
 C3026 C 0.64140 0.74885 0.18017
 C3027 C 0.66219 0.74989 0.18877
 C3028 C 0.58472 0.75210 0.17540
 C3029 C 0.64778 0.76536 0.22164
 C3030 C 0.62697 0.76428 0.21297
 C3031 C 0.60232 0.75396 0.18348
 C3032 C 0.66564 0.75794 0.20972
 H3033 H 0.63908 0.74234 0.16411
 H3034 H 0.67551 0.74405 0.17912
 H3035 H 0.64981 0.77162 0.23781
 H3036 H 0.61340 0.76979 0.22249
 C3037 C 0.12300 0.25518 0.69172
 C3038 C 0.12637 0.26386 0.71228
 C3039 C 0.14718 0.26460 0.72099
 C3040 C 0.08412 0.25246 0.67442
 C3041 C 0.16131 0.24825 0.68842
 C3042 C 0.14053 0.24755 0.67977
 C3043 C 0.10164 0.25386 0.68274
 C3044 C 0.16489 0.25661 0.70922
 H3045 H 0.11291 0.26987 0.72164
 H3046 H 0.14933 0.27112 0.73704
 H3047 H 0.17451 0.24198 0.67889
 H3048 H 0.13810 0.24086 0.66381
 C3049 C 0.87755 0.24571 0.69324
 C3050 C 0.85994 0.25380 0.68171
 C3051 C 0.83925 0.25305 0.69059
 C3052 C 0.91630 0.24706 0.67546
 C3053 C 0.85365 0.23579 0.72257
 C3054 C 0.87435 0.23658 0.71363
 C3055 C 0.89878 0.24653 0.68388
 C3056 C 0.83584 0.24415 0.71120
 H3057 H 0.86220 0.26080 0.66586
 H3058 H 0.82598 0.25964 0.68135
 H3059 H 0.85165 0.22886 0.73847
 H3060 H 0.88786 0.23015 0.72265
 C3061 C 0.37613 0.74509 0.19332
 C3062 C 0.37269 0.73579 0.21359
 C3063 C 0.35190 0.73502 0.22232
 C3064 C 0.41510 0.74630 0.17599
 C3065 C 0.33788 0.75262 0.19036
 C3066 C 0.35866 0.75336 0.18169
 C3067 C 0.39747 0.74588 0.18419
 C3068 C 0.33424 0.74355 0.21086
 H3069 H 0.38608 0.72921 0.22268
 H3070 H 0.34972 0.72795 0.23814
 H3071 H 0.32473 0.75936 0.18107
 H3072 H 0.36111 0.76049 0.16593
 C3073 C 0.37627 0.25555 0.30675
 C3074 C 0.37317 0.26409 0.28609
 C3075 C 0.35252 0.26455 0.27699
 C3076 C 0.41494 0.25461 0.32473
 C3077 C 0.33799 0.24815 0.30936
 C3078 C 0.35862 0.24772 0.31839
 C3079 C 0.39745 0.25497 0.31622
 C3080 C 0.33468 0.25645 0.28848
 H3081 H 0.38671 0.27029 0.27698
 H3082 H 0.35059 0.27102 0.26089
 H3083 H 0.32468 0.24178 0.31868
 H3084 H 0.36082 0.24118 0.33444
 C3085 C 0.87721 0.75538 0.80830
 C3086 C 0.87420 0.76397 0.78765
 C3087 C 0.85356 0.76458 0.77851
 C3088 C 0.91581 0.75428 0.82642
 C3089 C 0.83888 0.74822 0.81083
 C3090 C 0.85949 0.74765 0.81989
 C3091 C 0.89836 0.75470 0.81784
 C3092 C 0.83566 0.75657 0.78995
 H3093 H 0.88780 0.77011 0.77857
 H3094 H 0.85170 0.77108 0.76242
 H3095 H 0.82552 0.74192 0.82013
 H3096 H 0.86162 0.74107 0.83594
   
