data_POSCAR
  _audit_creation_date              2014-09-24
  _audit_creation_method            'ToBaCCo'
  _symmetry_space_group_name_H-M    'P1'
  _symmetry_Int_Tables_number       1
  _symmetry_cell_setting            triclinic
  loop_
  _symmetry_equiv_pos_as_xyz
 x,y,z
_cell_length_a 62.3230
_cell_length_b 62.5388
_cell_length_c 56.3047
_cell_angle_alpha 90.733500
_cell_angle_beta 89.879000
_cell_angle_gamma 89.760300
loop_
  _atom_site_label
  _atom_site_type_symbol
  _atom_site_fract_x
  _atom_site_fract_y
  _atom_site_fract_z
C1 C 0.38491 0.02451 0.27640
 H2 H 0.38496 0.03326 0.25995
 C3 C 0.39697 0.03184 0.29569
 H4 H 0.40660 0.04613 0.29407
 C5 C 0.37204 -0.00467 0.29881
 H6 H 0.36197 -0.01862 0.30011
 C7 C 0.38385 0.00212 0.31853
 H8 H 0.38316 -0.00685 0.33485
 N9 N 0.37295 0.00644 0.27822
 C10 C 0.36253 -0.01403 0.20501
 H11 H 0.34518 -0.01456 0.20494
 C12 C 0.37402 -0.02004 0.18469
 H13 H 0.36554 -0.02498 0.16878
 C14 C 0.39485 -0.00720 0.22594
 H15 H 0.40287 -0.00258 0.24219
 C16 C 0.40697 -0.01309 0.20599
 H17 H 0.42433 -0.01265 0.20676
 Zn18 Zn 0.35591 -0.00130 0.25187
 N19 N 0.37303 -0.00760 0.22500
 C20 C 0.33967 0.03376 0.22595
 N21 N 0.33782 0.02227 0.24621
 C22 C 0.32513 0.02905 0.26452
 C23 C 0.31408 0.04844 0.26312
 C24 C 0.32890 0.05325 0.22383
 C25 C 0.35214 -0.04427 0.26129
 C26 C 0.34217 -0.06403 0.26363
 C27 C 0.30776 -0.04645 0.25924
 C28 C 0.31843 -0.02694 0.25703
 N29 N 0.34023 -0.02629 0.25802
 H30 H 0.35033 0.02840 0.21192
 H31 H 0.32440 0.01984 0.28063
 H32 H 0.30462 0.05412 0.27810
 H33 H 0.33107 0.06274 0.20804
 H34 H 0.36946 -0.04327 0.26152
 H35 H 0.35190 -0.07828 0.26583
 H36 H 0.29041 -0.04693 0.25795
 H37 H 0.30935 -0.01251 0.25383
 C38 C 0.39643 -0.01956 0.18522
 C39 C 0.39640 0.02053 0.31693
 C40 C 0.31980 -0.06517 0.26235
 C41 C 0.31631 0.06080 0.24276
 C42 C 0.11028 0.02771 0.72310
 H43 H 0.10939 0.03665 0.73966
 C44 C 0.09879 0.03463 0.70334
 H45 H 0.08878 0.04880 0.70466
 C46 C 0.12490 -0.00137 0.70084
 H47 H 0.13551 -0.01504 0.69974
 C48 C 0.11371 0.00499 0.68069
 H49 H 0.11543 -0.00405 0.66424
 N50 N 0.12292 0.00994 0.72153
 C51 C 0.13335 -0.00988 0.79443
 H52 H 0.15071 -0.00968 0.79468
 C53 C 0.12202 -0.01698 0.81417
 H54 H 0.13061 -0.02198 0.82987
 C55 C 0.10092 -0.00419 0.77337
 H56 H 0.09283 0.00029 0.75721
 C57 C 0.08895 -0.01122 0.79275
 H58 H 0.07160 -0.01176 0.79169
 Zn59 Zn 0.13982 0.00284 0.74805
 N60 N 0.12271 -0.00361 0.77460
 C61 C 0.15590 0.03803 0.77487
 N62 N 0.15748 0.02659 0.75421
 C63 C 0.17010 0.03320 0.73601
 C64 C 0.18156 0.05223 0.73803
 C65 C 0.16711 0.05720 0.77763
 C66 C 0.14459 -0.04014 0.73816
 C67 C 0.15498 -0.05979 0.73570
 C68 C 0.18898 -0.04177 0.74060
 C69 C 0.17792 -0.02236 0.74291
 N70 N 0.15611 -0.02197 0.74173
 H71 H 0.14534 0.03278 0.78885
 H72 H 0.17066 0.02399 0.71962
 H73 H 0.19113 0.05769 0.72323
 H74 H 0.16536 0.06656 0.79384
 H75 H 0.12725 -0.03935 0.73779
 H76 H 0.14565 -0.07424 0.73328
 H77 H 0.20630 -0.04215 0.74207
 H78 H 0.18669 -0.00778 0.74638
 C79 C 0.09965 -0.01778 0.81325
 C80 C 0.10063 0.02318 0.68194
 C81 C 0.17732 -0.06063 0.73717
 C82 C 0.17981 0.06445 0.75891
 C83 C 0.61527 0.52431 0.22298
 H84 H 0.61449 0.53308 0.23964
 C85 C 0.60413 0.53174 0.20320
 H86 H 0.59448 0.54615 0.20462
 C87 C 0.62922 0.49504 0.20047
 H88 H 0.63942 0.48107 0.19929
 C89 C 0.61838 0.50192 0.18032
 H90 H 0.61993 0.49298 0.16378
 N91 N 0.62738 0.50618 0.22129
 C92 C 0.63640 0.48471 0.29379
 H93 H 0.65375 0.48407 0.29408
 C94 C 0.62468 0.47797 0.31341
 H95 H 0.63298 0.47237 0.32905
 C96 C 0.60433 0.49236 0.27281
 H97 H 0.59652 0.49752 0.25675
 C98 C 0.59198 0.48574 0.29209
 H99 H 0.57462 0.48618 0.29104
 Zn100 Zn 0.64373 0.49817 0.24790
 N101 N 0.62613 0.49181 0.27408
 C102 C 0.65994 0.53249 0.27572
 N103 N 0.66190 0.52132 0.25492
 C104 C 0.67501 0.52806 0.23720
 C105 C 0.68646 0.54706 0.23982
 C106 C 0.67110 0.55160 0.27905
 C107 C 0.64721 0.45526 0.23745
 C108 C 0.65695 0.43529 0.23491
 C109 C 0.69151 0.45215 0.24017
 C110 C 0.68109 0.47191 0.24257
 N111 N 0.65931 0.47301 0.24129
 H112 H 0.64898 0.52717 0.28928
 H113 H 0.67586 0.51908 0.22067
 H114 H 0.69629 0.55272 0.22532
 H115 H 0.66889 0.56084 0.29528
 H116 H 0.62991 0.45662 0.23699
 H117 H 0.64715 0.42117 0.23241
 H118 H 0.70880 0.45119 0.24179
 H119 H 0.69031 0.48616 0.24623
 C120 C 0.60229 0.47840 0.31250
 C121 C 0.60579 0.52044 0.18169
 C122 C 0.67924 0.43371 0.23655
 C123 C 0.68417 0.55908 0.26077
 C124 C 0.88876 0.52415 0.77491
 H125 H 0.88906 0.53286 0.75843
 C126 C 0.90056 0.53153 0.79439
 H127 H 0.91020 0.54583 0.79284
 C128 C 0.87538 0.49516 0.79724
 H129 H 0.86515 0.48132 0.79846
 C130 C 0.88690 0.50199 0.81715
 H131 H 0.88579 0.49311 0.83352
 N132 N 0.87660 0.50621 0.77663
 C133 C 0.86579 0.48561 0.70350
 H134 H 0.84843 0.48525 0.70357
 C135 C 0.87710 0.47938 0.68315
 H136 H 0.86847 0.47442 0.66734
 C137 C 0.89830 0.49228 0.72414
 H138 H 0.90646 0.49694 0.74029
 C139 C 0.91024 0.48616 0.70413
 H140 H 0.92761 0.48647 0.70475
 Zn141 Zn 0.85947 0.49869 0.75023
 N142 N 0.87647 0.49206 0.72337
 C143 C 0.84378 0.53390 0.72411
 N144 N 0.84176 0.52254 0.74445
 C145 C 0.82912 0.52957 0.76268
 C146 C 0.81823 0.54903 0.76109
 C147 C 0.83317 0.55347 0.72180
 C148 C 0.85487 0.45577 0.75968
 C149 C 0.84453 0.43620 0.76192
 C150 C 0.81048 0.45436 0.75734
 C151 C 0.82149 0.47369 0.75524
 N152 N 0.84331 0.47398 0.75636
 H153 H 0.85440 0.52834 0.71013
 H154 H 0.82824 0.52044 0.77885
 H155 H 0.80876 0.55487 0.77599
 H156 H 0.83542 0.56281 0.70593
 H157 H 0.87221 0.45646 0.76002
 H158 H 0.85389 0.42173 0.76415
 H159 H 0.79315 0.45408 0.75594
 H160 H 0.81268 0.48828 0.75198
 C161 C 0.89951 0.47965 0.68349
 C162 C 0.89954 0.52038 0.81573
 C163 C 0.82217 0.43546 0.76051
 C164 C 0.82058 0.56123 0.74063
 C165 C 0.22596 0.41618 0.98338
 H166 H 0.24033 0.41816 0.97284
 C167 C 0.20733 0.42768 0.97788
 H168 H 0.20733 0.43868 0.96318
 C169 C 0.20800 0.39904 1.01502
 H170 H 0.20800 0.38753 1.02912
 C171 C 0.18917 0.41013 1.01015
 H172 H 0.17493 0.40730 1.02072
 N173 N 0.22603 0.40239 1.00191
 C174 C 0.29178 0.39342 1.02619
 H175 H 0.29137 0.37627 1.02846
 C176 C 0.31065 0.40462 1.03065
 H177 H 0.32487 0.39612 1.03638
 C178 C 0.27401 0.42532 1.01484
 H179 H 0.25976 0.43327 1.00851
 C180 C 0.29262 0.43716 1.01905
 H181 H 0.29273 0.45418 1.01574
 Zn182 Zn 0.25089 0.38617 1.00900
 N183 N 0.27416 0.40376 1.01779
 C184 C 0.27827 0.37299 0.97151
 N185 N 0.25861 0.37005 0.98154
 C186 C 0.24394 0.35676 0.97134
 C187 C 0.24899 0.34554 0.95041
 C188 C 0.28395 0.36211 0.95064
 C189 C 0.24205 0.37903 1.05631
 C190 C 0.23571 0.36791 1.07640
 C191 C 0.23597 0.33524 1.05295
 C192 C 0.24231 0.34702 1.03320
 N193 N 0.24480 0.36858 1.03517
 H194 H 0.28952 0.38406 0.97937
 H195 H 0.22825 0.35508 0.97934
 H196 H 0.23723 0.33505 0.94233
 H197 H 0.29958 0.36466 0.94274
 H198 H 0.24422 0.39617 1.05733
 H199 H 0.23322 0.37642 1.09306
 H200 H 0.23370 0.31812 1.05129
 H201 H 0.24484 0.33900 1.01632
 C202 C 0.31118 0.42659 1.02658
 C203 C 0.18882 0.42459 0.99150
 C204 C 0.23238 0.34588 1.07463
 C205 C 0.26919 0.34830 0.93999
 C206 C 0.77526 0.08190 0.97378
 H207 H 0.76134 0.07982 0.96255
 C208 C 0.79411 0.07038 0.96892
 H209 H 0.79471 0.05929 0.95399
 C210 C 0.79181 0.09919 1.00666
 H211 H 0.79119 0.11073 1.02103
 C212 C 0.81084 0.08809 1.00246
 H213 H 0.82456 0.09099 1.01386
 N214 N 0.77436 0.09571 0.99266
 C215 C 0.70788 0.10362 1.01491
 H216 H 0.70810 0.12073 1.01796
 C217 C 0.68904 0.09222 1.01849
 H218 H 0.67465 0.10053 1.02437
 C219 C 0.72618 0.07199 1.00263
 H220 H 0.74065 0.06422 0.99635
 C221 C 0.70758 0.05995 1.00592
 H222 H 0.70770 0.04294 1.00200
 Zn223 Zn 0.74908 0.11151 0.99949
 N224 N 0.72578 0.09351 1.00654
 C225 C 0.72273 0.12497 0.96180
 N226 N 0.74201 0.12807 0.97263
 C227 C 0.75666 0.14192 0.96371
 C228 C 0.75194 0.15361 0.94334
 C229 C 0.71739 0.13629 0.94146
 C230 C 0.75613 0.11773 1.04747
 C231 C 0.76187 0.12842 1.06834
 C232 C 0.76229 0.16156 1.04669
 C233 C 0.75653 0.15021 1.02612
 N234 N 0.75402 0.12862 1.02683
 H235 H 0.71152 0.11346 0.96860
 H236 H 0.77207 0.14373 0.97230
 H237 H 0.76368 0.16458 0.93628
 H238 H 0.70205 0.13363 0.93293
 H239 H 0.75400 0.10057 1.04748
 H240 H 0.76393 0.11954 1.08459
 H241 H 0.76464 0.17869 1.04603
 H242 H 0.75454 0.15858 1.00961
 C243 C 0.68879 0.07029 1.01354
 C244 C 0.81200 0.07349 0.98356
 C245 C 0.76527 0.15046 1.06787
 C246 C 0.73211 0.15073 0.93216
 C247 C 0.27479 0.58344 0.47487
 H248 H 0.26085 0.58120 0.46371
 C249 C 0.29383 0.57229 0.46977
 H250 H 0.29456 0.56127 0.45479
 C251 C 0.29132 0.60096 0.50761
 H252 H 0.29065 0.61250 0.52198
 C253 C 0.31052 0.59023 0.50316
 H254 H 0.32433 0.59335 0.51434
 N255 N 0.27383 0.59727 0.49373
 C256 C 0.20730 0.60623 0.51585
 H257 H 0.20792 0.62331 0.51903
 C258 C 0.18809 0.59532 0.51898
 H259 H 0.17385 0.60398 0.52467
 C260 C 0.22485 0.57425 0.50333
 H261 H 0.23914 0.56619 0.49697
 C262 C 0.20587 0.56270 0.50620
 H263 H 0.20553 0.54576 0.50193
 Zn264 Zn 0.24860 0.61332 0.50031
 N265 N 0.22499 0.59573 0.50752
 C266 C 0.22242 0.62670 0.46238
 N267 N 0.24178 0.62958 0.47313
 C268 C 0.25666 0.64305 0.46397
 C269 C 0.25210 0.65462 0.44349
 C270 C 0.21723 0.63792 0.44192
 C271 C 0.25564 0.62040 0.54824
 C272 C 0.26148 0.63149 0.56884
 C273 C 0.26225 0.66413 0.54630
 C274 C 0.25638 0.65240 0.52604
 N275 N 0.25365 0.63086 0.52730
 H276 H 0.21100 0.61549 0.46938
 H277 H 0.27212 0.64468 0.47251
 H278 H 0.26400 0.66535 0.43630
 H279 H 0.20180 0.63550 0.43350
 H280 H 0.25333 0.60328 0.54870
 H281 H 0.26344 0.62296 0.58533
 H282 H 0.26478 0.68121 0.54518
 H283 H 0.25448 0.66044 0.50931
 C284 C 0.18726 0.57347 0.51365
 C285 C 0.31181 0.57577 0.48414
 C286 C 0.26511 0.65347 0.56778
 C287 C 0.23218 0.65201 0.43242
 C288 C 0.72497 0.91436 0.48213
 H289 H 0.73908 0.91627 0.47116
 C290 C 0.70608 0.92550 0.47679
 H291 H 0.70563 0.93618 0.46181
 C292 C 0.70788 0.89769 0.51467
 H293 H 0.70830 0.88650 0.52906
 C294 C 0.68881 0.90842 0.50996
 H295 H 0.67483 0.90565 0.52097
 N296 N 0.72559 0.90098 0.50102
 C297 C 0.79176 0.89275 0.52396
 H298 H 0.79123 0.87574 0.52714
 C299 C 0.81085 0.90388 0.52730
 H300 H 0.82509 0.89547 0.53315
 C301 C 0.77412 0.92431 0.51130
 H302 H 0.75984 0.93213 0.50484
 C303 C 0.79296 0.93607 0.51434
 H304 H 0.79321 0.95291 0.51007
 Zn305 Zn 0.75070 0.88511 0.50788
 N306 N 0.77410 0.90292 0.51543
 C307 C 0.77741 0.87096 0.47023
 N308 N 0.75790 0.86835 0.48074
 C309 C 0.74305 0.85483 0.47130
 C310 C 0.74776 0.84299 0.45070
 C311 C 0.78275 0.85946 0.44966
 C312 C 0.74289 0.87891 0.55568
 C313 C 0.73713 0.86806 0.57618
 C314 C 0.73743 0.83499 0.55344
 C315 C 0.74319 0.84649 0.53329
 N316 N 0.74537 0.86811 0.53471
 H317 H 0.78881 0.88220 0.47749
 H318 H 0.72749 0.85341 0.47967
 H319 H 0.73586 0.83228 0.44323
 H320 H 0.79828 0.86171 0.44139
 H321 H 0.74483 0.89609 0.55626
 H322 H 0.73482 0.87684 0.59271
 H323 H 0.73540 0.81782 0.55222
 H324 H 0.74552 0.83819 0.51654
 C325 C 0.81155 0.92560 0.52195
 C326 C 0.68789 0.92245 0.49094
 C327 C 0.73410 0.84597 0.57496
 C328 C 0.76780 0.84537 0.43982
 C329 C 0.01137 0.27906 0.41190
 H330 H 0.02577 0.26940 0.41292
 C331 C 0.00966 0.29797 0.42535
 H332 H 0.02274 0.30286 0.43680
 C333 C -0.02303 0.28492 0.39525
 H334 H -0.03558 0.28007 0.38316
 C335 C -0.02538 0.30392 0.40836
 H336 H -0.03978 0.31350 0.40643
 N337 N -0.00490 0.27284 0.39730
 C338 C 0.00266 0.20374 0.38639
 H339 H 0.00207 0.20303 0.36720
 C340 C 0.00465 0.18491 0.39930
 H341 H 0.00558 0.16966 0.38996
 C342 C 0.00189 0.22447 0.42195
 H343 H 0.00055 0.23987 0.43072
 C344 C 0.00385 0.20598 0.43557
 H345 H 0.00411 0.20729 0.45478
 Zn346 Zn -0.00119 0.24761 0.37839
 N347 N 0.00156 0.22304 0.39779
 C348 C 0.04086 0.23714 0.36242
 N349 N 0.02420 0.25107 0.35988
 C350 C 0.02585 0.26821 0.34529
 C351 C 0.04470 0.27163 0.33231
 C352 C 0.05993 0.23997 0.34979
 C353 C -0.04441 0.23862 0.37018
 C354 C -0.06330 0.23551 0.35731
 C355 C -0.04343 0.24141 0.32112
 C356 C -0.02484 0.24439 0.33470
 N357 N -0.02573 0.24327 0.35883
 H358 H 0.03960 0.22396 0.37453
 H359 H 0.01256 0.27931 0.34391
 H360 H 0.04589 0.28532 0.32079
 H361 H 0.07309 0.22880 0.35204
 H362 H -0.04464 0.23758 0.38935
 H363 H -0.07813 0.23214 0.36659
 H364 H -0.04267 0.24264 0.30196
 H365 H -0.00981 0.24771 0.32594
 C366 C 0.00533 0.18601 0.42412
 C367 C -0.00889 0.31054 0.42353
 C368 C -0.06287 0.23705 0.33256
 C369 C 0.06192 0.25736 0.33460
 C370 C 0.01174 0.72037 0.09018
 H371 H 0.02600 0.73014 0.08933
 C372 C 0.01044 0.70154 0.07657
 H373 H 0.02373 0.69679 0.06522
 C374 C -0.02270 0.71415 0.10659
 H375 H -0.03541 0.71882 0.11866
 C376 C -0.02464 0.69522 0.09331
 H377 H -0.03888 0.68550 0.09513
 N378 N -0.00474 0.72637 0.10476
 C379 C 0.00124 0.79548 0.11610
 H380 H 0.00052 0.79612 0.13530
 C381 C 0.00294 0.81439 0.10329
 H382 H 0.00352 0.82962 0.11265
 C383 C 0.00117 0.77491 0.08044
 H384 H 0.00024 0.75952 0.07158
 C385 C 0.00286 0.79348 0.06692
 H386 H 0.00334 0.79231 0.04772
 Zn387 Zn -0.00152 0.75150 0.12388
 N388 N 0.00065 0.77622 0.10461
 C389 C 0.04021 0.76258 0.14000
 N390 N 0.02398 0.74823 0.14224
 C391 C 0.02608 0.73095 0.15656
 C392 C 0.04492 0.72783 0.16965
 C393 C 0.05924 0.76008 0.15275
 C394 C -0.04497 0.75981 0.13274
 C395 C -0.06384 0.76244 0.14594
 C396 C -0.04345 0.75654 0.18175
 C397 C -0.02493 0.75403 0.16783
 N398 N -0.02607 0.75536 0.14374
 H399 H 0.03859 0.77590 0.12813
 H400 H 0.01314 0.71953 0.15774
 H401 H 0.04644 0.71408 0.18103
 H402 H 0.07201 0.77164 0.15083
 H403 H -0.04540 0.76103 0.11359
 H404 H -0.07880 0.76564 0.13683
 H405 H -0.04237 0.75511 0.20088
 H406 H -0.00973 0.75090 0.17631
 C407 C 0.00386 0.81339 0.07848
 C408 C -0.00792 0.68882 0.07819
 C409 C -0.06315 0.76064 0.17070
 C410 C 0.06166 0.74258 0.16773
 C411 C 0.51364 0.22135 0.58902
 H412 H 0.52801 0.23098 0.58854
 C413 C 0.51236 0.20266 0.57520
 H414 H 0.52576 0.19790 0.56403
 C415 C 0.47886 0.21538 0.60466
 H416 H 0.46598 0.22013 0.61648
 C417 C 0.47692 0.19658 0.59112
 H418 H 0.46251 0.18703 0.59246
 N419 N 0.49698 0.22743 0.60329
 C420 C 0.50380 0.29659 0.61417
 H421 H 0.50324 0.29746 0.63337
 C422 C 0.50564 0.31531 0.60104
 H423 H 0.50649 0.33065 0.61014
 C424 C 0.50313 0.27559 0.57883
 H425 H 0.50189 0.26012 0.57020
 C426 C 0.50494 0.29395 0.56501
 H427 H 0.50520 0.29253 0.54582
 Zn428 Zn 0.50035 0.25256 0.62239
 N429 N 0.50284 0.27719 0.60298
 C430 C 0.54215 0.26317 0.63904
 N431 N 0.52573 0.24898 0.64085
 C432 C 0.52744 0.23151 0.65494
 C433 C 0.54607 0.22800 0.66823
 C434 C 0.56101 0.26026 0.65202
 C435 C 0.45688 0.26105 0.63146
 C436 C 0.43816 0.26389 0.64488
 C437 C 0.45888 0.25835 0.68049
 C438 C 0.47725 0.25562 0.66640
 N439 N 0.47588 0.25668 0.64229
 H440 H 0.54081 0.27665 0.62736
 H441 H 0.51434 0.22025 0.65577
 H442 H 0.54728 0.21407 0.67940
 H443 H 0.57396 0.27166 0.65044
 H444 H 0.45625 0.26207 0.61230
 H445 H 0.42307 0.26702 0.63603
 H446 H 0.46005 0.25716 0.69962
 H447 H 0.49251 0.25256 0.67475
 C448 C 0.50628 0.31400 0.57623
 C449 C 0.49383 0.19014 0.57626
 C450 C 0.43912 0.26239 0.66962
 C451 C 0.56302 0.24254 0.66677
 C452 C 0.51095 0.78160 0.91161
 H453 H 0.52515 0.77168 0.91287
 C454 C 0.50926 0.80037 0.92530
 H455 H 0.52218 0.80490 0.93716
 C456 C 0.47699 0.78820 0.89422
 H457 H 0.46460 0.78368 0.88179
 C458 C 0.47467 0.80708 0.90756
 H459 H 0.46045 0.81689 0.90545
 N460 N 0.49486 0.77579 0.89656
 C461 C 0.50062 0.70656 0.88558
 H462 H 0.50032 0.70592 0.86637
 C463 C 0.50167 0.68763 0.89844
 H464 H 0.50216 0.67238 0.88911
 C465 C 0.50002 0.72718 0.92121
 H466 H 0.49909 0.74259 0.93003
 C467 C 0.50106 0.70859 0.93477
 H468 H 0.50105 0.70976 0.95398
 Zn469 Zn 0.49833 0.75053 0.87763
 N470 N 0.50003 0.72585 0.89703
 C471 C 0.54036 0.73892 0.86267
 N472 N 0.52417 0.75333 0.85967
 C473 C 0.52665 0.77036 0.84507
 C474 C 0.54587 0.77319 0.83254
 C475 C 0.55976 0.74115 0.85051
 C476 C 0.45512 0.74249 0.86872
 C477 C 0.43629 0.73983 0.85562
 C478 C 0.45661 0.74555 0.81970
 C479 C 0.47513 0.74809 0.83350
 N480 N 0.47400 0.74683 0.85761
 H481 H 0.53844 0.72582 0.87477
 H482 H 0.51373 0.78183 0.84330
 H483 H 0.54771 0.78677 0.82098
 H484 H 0.57251 0.72957 0.85309
 H485 H 0.45469 0.74134 0.88787
 H486 H 0.42132 0.73669 0.86472
 H487 H 0.45756 0.74687 0.80056
 H488 H 0.49032 0.75117 0.82495
 C489 C 0.50194 0.68863 0.92326
 C490 C 0.49094 0.81323 0.92325
 C491 C 0.43698 0.74150 0.83090
 C492 C 0.56260 0.75842 0.83532
 C493 C -0.22446 0.63795 0.97759
 H494 H -0.21562 0.63758 0.99409
 C495 C -0.21681 0.64992 0.95862
 H496 H -0.20215 0.65903 0.96052
 C497 C -0.25405 0.62599 0.95460
 H498 H -0.26823 0.61623 0.95289
 C499 C -0.24696 0.63773 0.93521
 H500 H -0.25591 0.63726 0.91873
 N501 N -0.24280 0.62637 0.97528
 C502 C -0.26376 0.61388 1.04759
 H503 H -0.26441 0.59660 1.04676
 C504 C -0.27007 0.62474 1.06826
 H505 H -0.27536 0.61579 1.08354
 C506 C -0.25642 0.64666 1.02848
 H507 H -0.25150 0.65511 1.01278
 C508 C -0.26260 0.65817 1.04881
 H509 H -0.26206 0.67549 1.04884
 Zn510 Zn -0.25063 0.60866 1.00073
 N511 N -0.25697 0.62491 1.02832
 C512 C -0.21571 0.59128 1.02639
 N513 N -0.22707 0.59036 1.00579
 C514 C -0.22022 0.57839 0.98689
 C515 C -0.20092 0.56708 0.98807
 C516 C -0.19630 0.58022 1.02831
 C517 C -0.29381 0.60521 0.99091
 C518 C -0.31363 0.59534 0.98797
 C519 C -0.29591 0.56095 0.99024
 C520 C -0.27633 0.57150 0.99312
 N521 N -0.27572 0.59326 0.99349
 H522 H -0.22113 0.60137 1.04094
 H523 H -0.22933 0.57838 0.97056
 H524 H -0.19520 0.55816 0.97269
 H525 H -0.18693 0.58161 1.04444
 H526 H -0.29285 0.62247 0.99175
 H527 H -0.32803 0.60500 0.98643
 H528 H -0.29646 0.54364 0.99049
 H529 H -0.26182 0.56234 0.99580
 C530 C -0.26952 0.64708 1.06885
 C531 C -0.22813 0.64969 0.93721
 C532 C -0.31471 0.57304 0.98786
 C533 C -0.18870 0.56832 1.00883
 C534 C -0.22429 0.35834 0.52801
 H535 H -0.21571 0.35774 0.51128
 C536 C -0.21707 0.34728 0.54656
 H537 H -0.20269 0.33758 0.54483
 C538 C -0.25389 0.37272 0.55019
 H539 H -0.26770 0.38312 0.55179
 C540 C -0.24662 0.36066 0.57103
 H541 H -0.25568 0.36186 0.58747
 N542 N -0.24337 0.37128 0.53021
 C543 C -0.26496 0.38133 0.45777
 H544 H -0.26548 0.39862 0.45788
 C545 C -0.27165 0.36989 0.43773
 H546 H -0.27710 0.37835 0.42217
 C547 C -0.25756 0.34911 0.47809
 H548 H -0.25246 0.34113 0.49403
 C549 C -0.26413 0.33704 0.45838
 H550 H -0.26374 0.31973 0.45899
 Zn551 Zn -0.25124 0.38806 0.50399
 N552 N -0.25797 0.37085 0.47734
 C553 C -0.21664 0.40378 0.47664
 N554 N -0.22764 0.40578 0.49747
 C555 C -0.22054 0.41868 0.51540
 C556 C -0.20142 0.42997 0.51292
 C557 C -0.19743 0.41479 0.47343
 C558 C -0.29432 0.39243 0.51414
 C559 C -0.31417 0.40258 0.51633
 C560 C -0.29647 0.43662 0.51152
 C561 C -0.27686 0.42579 0.50946
 N562 N -0.27623 0.40407 0.51065
 H563 H -0.22223 0.39298 0.46289
 H564 H -0.22938 0.41957 0.53195
 H565 H -0.19554 0.43974 0.52752
 H566 H -0.18840 0.41265 0.45711
 H567 H -0.29334 0.37516 0.51450
 H568 H -0.32854 0.39308 0.51851
 H569 H -0.29699 0.45386 0.50993
 H570 H -0.26235 0.43464 0.50606
 C571 C -0.27128 0.34756 0.43807
 C572 C -0.22889 0.34853 0.56932
 C573 C -0.31530 0.42483 0.51470
 C574 C -0.18964 0.42776 0.49187
 C575 C 0.27581 -0.14005 0.02770
 H576 H 0.28447 -0.14068 0.01102
 C577 C 0.28282 -0.15125 0.04625
 H578 H 0.29710 -0.16108 0.04456
 C579 C 0.24625 -0.12545 0.04977
 H580 H 0.23255 -0.11490 0.05134
 C581 C 0.25329 -0.13763 0.07060
 H582 H 0.24416 -0.13639 0.08699
 N583 N 0.25685 -0.12693 0.02984
 C584 C 0.23594 -0.11614 -0.04271
 H585 H 0.23551 -0.09885 -0.04237
 C586 C 0.22930 -0.12732 -0.06296
 H587 H 0.22397 -0.11865 -0.07842
 C588 C 0.24300 -0.14863 -0.02277
 H589 H 0.24792 -0.15681 -0.00689
 C590 C 0.23647 -0.16045 -0.04269
 H591 H 0.23672 -0.17776 -0.04230
 Zn592 Zn 0.24922 -0.10995 0.00369
 N593 N 0.24272 -0.12688 -0.02323
 C594 C 0.28404 -0.09399 -0.02308
 N595 N 0.27281 -0.09212 -0.00239
 C596 C 0.27962 -0.07922 0.01568
 C597 C 0.29867 -0.06777 0.01347
 C598 C 0.30319 -0.08282 -0.02601
 C599 C 0.20612 -0.10579 0.01351
 C600 C 0.18621 -0.09575 0.01555
 C601 C 0.20378 -0.06160 0.01102
 C602 C 0.22345 -0.07233 0.00911
 N603 N 0.22417 -0.09405 0.01023
 H604 H 0.27867 -0.10479 -0.03694
 H605 H 0.27060 -0.07843 0.03211
 H606 H 0.30432 -0.05799 0.02818
 H607 H 0.31241 -0.08486 -0.04222
 H608 H 0.20718 -0.12306 0.01380
 H609 H 0.17188 -0.10533 0.01759
 H610 H 0.20318 -0.04436 0.00949
 H611 H 0.23794 -0.06340 0.00585
 C612 C 0.22951 -0.14965 -0.06290
 C613 C 0.27090 -0.14995 0.06894
 C614 C 0.18500 -0.07350 0.01398
 C615 C 0.31067 -0.06983 -0.00743
 C616 C 0.27600 1.13907 0.47652
 H617 H 0.28486 1.13876 0.49301
 C618 C 0.28360 1.15100 0.45749
 H619 H 0.29824 1.16014 0.45935
 C620 C 0.24633 1.12711 0.45365
 H621 H 0.23211 1.11739 0.45204
 C622 C 0.25338 1.13880 0.43421
 H623 H 0.24435 1.13835 0.41779
 N624 N 0.25760 1.12756 0.47433
 C625 C 0.23636 1.11645 0.54686
 H626 H 0.23552 1.09917 0.54649
 C627 C 0.23023 1.12781 0.56728
 H628 H 0.22487 1.11931 0.58284
 C629 C 0.24405 1.14873 0.52690
 H630 H 0.24905 1.15681 0.51099
 C631 C 0.23806 1.16071 0.54695
 H632 H 0.23882 1.17801 0.54660
 Zn633 Zn 0.24958 1.11028 0.50007
 N634 N 0.24325 1.12700 0.52730
 C635 C 0.28439 1.09332 0.52623
 N636 N 0.27307 1.09200 0.50561
 C637 C 0.28003 1.07978 0.48696
 C638 C 0.29942 1.06866 0.48838
 C639 C 0.30389 1.08244 0.52838
 C640 C 0.20641 1.10699 0.49016
 C641 C 0.18656 1.09722 0.48701
 C642 C 0.20408 1.06274 0.48957
 C643 C 0.22369 1.07320 0.49267
 N644 N 0.22442 1.09495 0.49296
 H645 H 0.27889 1.10359 0.54057
 H646 H 0.27094 1.07947 0.47061
 H647 H 0.30523 1.05955 0.47316
 H648 H 0.31323 1.08414 0.54450
 H649 H 0.20746 1.12425 0.49092
 H650 H 0.17224 1.10694 0.48524
 H651 H 0.20344 1.04544 0.48982
 H652 H 0.23814 1.06398 0.49550
 C653 C 0.23107 1.15013 0.56728
 C654 C 0.27220 1.15078 0.43615
 C655 C 0.18537 1.07492 0.48691
 C656 C 0.31161 1.07033 0.50912
 C657 C 0.16484 0.47479 0.26999
 H658 H 0.16649 0.48892 0.28111
 C659 C 0.17592 0.45602 0.27566
 H660 H 0.18629 0.45567 0.29106
 C661 C 0.14887 0.45757 0.23671
 H662 H 0.13797 0.45791 0.22188
 C663 C 0.15956 0.43860 0.24173
 H664 H 0.15705 0.42460 0.23054
 N665 N 0.15181 0.47529 0.25060
 C666 C 0.14384 0.54110 0.22755
 H667 H 0.12682 0.54055 0.22389
 C668 C 0.15510 0.56005 0.22444
 H669 H 0.14678 0.57417 0.21826
 C670 C 0.17530 0.52362 0.24114
 H671 H 0.18303 0.50946 0.24786
 C672 C 0.18718 0.54234 0.23834
 H673 H 0.20403 0.54260 0.24302
 Zn674 Zn 0.13592 0.50027 0.24341
 N675 N 0.15390 0.52357 0.23638
 C676 C 0.12136 0.52717 0.28079
 N677 N 0.11885 0.50762 0.27021
 C678 C 0.10534 0.49283 0.27946
 C679 C 0.09352 0.49760 0.30000
 C680 C 0.10987 0.53256 0.30129
 C681 C 0.13013 0.49225 0.19540
 C682 C 0.11949 0.48630 0.17460
 C683 C 0.08611 0.48629 0.19663
 C684 C 0.09743 0.49225 0.21707
 N685 N 0.11910 0.49469 0.21614
 H686 H 0.13257 0.53853 0.27368
 H687 H 0.10399 0.47725 0.27104
 H688 H 0.08289 0.48572 0.30737
 H689 H 0.11210 0.54809 0.30966
 H690 H 0.14735 0.49438 0.19521
 H691 H 0.12856 0.48406 0.15829
 H692 H 0.06888 0.48408 0.19758
 H693 H 0.08895 0.49452 0.23366
 C694 C 0.17684 0.56079 0.23033
 C695 C 0.17320 0.43780 0.26131
 C696 C 0.09732 0.48301 0.17528
 C697 C 0.09587 0.51765 0.31100
 C698 C -0.16592 1.02235 0.26989
 H699 H -0.16780 1.00842 0.28088
 C700 C -0.17736 1.04113 0.27523
 H701 H -0.18825 1.04169 0.29024
 C702 C -0.14898 1.03910 0.23730
 H703 H -0.13755 1.03861 0.22291
 C704 C -0.16001 1.05805 0.24200
 H705 H -0.15723 1.07186 0.23099
 N706 N -0.15227 1.02161 0.25096
 C707 C -0.14315 0.95557 0.22768
 H708 H -0.12606 0.95625 0.22442
 C709 C -0.15411 0.93644 0.22419
 H710 H -0.14546 0.92229 0.21820
 C711 C -0.17511 0.97291 0.24068
 H712 H -0.18315 0.98710 0.24733
 C713 C -0.18670 0.95401 0.23748
 H714 H -0.20363 0.95360 0.24187
 Zn715 Zn -0.13602 0.99668 0.24401
 N716 N -0.15360 0.97311 0.23644
 C717 C -0.12194 0.97070 0.28154
 N718 N -0.11945 0.99006 0.27110
 C719 C -0.10640 1.00524 0.28074
 C720 C -0.09505 1.00108 0.30159
 C721 C -0.11090 0.96590 0.30233
 C722 C -0.12961 1.00386 0.19627
 C723 C -0.11887 1.00985 0.17571
 C724 C -0.08576 1.01079 0.19806
 C725 C -0.09719 1.00478 0.21830
 N726 N -0.11879 1.00191 0.21710
 H727 H -0.13279 0.95902 0.27410
 H728 H -0.10508 1.02068 0.27241
 H729 H -0.08479 1.01326 0.30926
 H730 H -0.11310 0.95050 0.31057
 H731 H -0.14679 1.00143 0.19589
 H732 H -0.12775 1.01181 0.15934
 H733 H -0.06861 1.01345 0.19918
 H734 H -0.08889 1.00292 0.23497
 C735 C -0.17595 0.93555 0.22963
 C736 C -0.17434 1.05907 0.26104
 C737 C -0.09681 1.01366 0.17669
 C738 C -0.09740 0.98123 0.31247
 C739 C 0.33196 0.52778 -0.23160
 H740 H 0.33070 0.51429 -0.21984
 C741 C 0.32062 0.54667 -0.22653
 H742 H 0.31044 0.54776 -0.21095
 C743 C 0.34737 0.54336 -0.26580
 H744 H 0.35819 0.54239 -0.28074
 C745 C 0.33638 0.56239 -0.26143
 H746 H 0.33861 0.57579 -0.27319
 N747 N 0.34492 0.52645 -0.25108
 C748 C 0.35604 0.45892 -0.27218
 H749 H 0.37304 0.45995 -0.27594
 C750 C 0.34590 0.44028 -0.27468
 H751 H 0.35467 0.42617 -0.28053
 C752 C 0.32403 0.47716 -0.25978
 H753 H 0.31578 0.49134 -0.25346
 C754 C 0.31216 0.45686 -0.26222
 H755 H 0.29531 0.45637 -0.25744
 Zn756 Zn 0.36170 0.50166 -0.25703
 N757 N 0.34464 0.47755 -0.26373
 C758 C 0.37647 0.47706 -0.21860
 N759 N 0.37823 0.49625 -0.22960
 C760 C 0.39050 0.51222 -0.22028
 C761 C 0.40176 0.50909 -0.19917
 C762 C 0.38745 0.47328 -0.19750
 C763 C 0.36866 0.50702 -0.30512
 C764 C 0.37956 0.51285 -0.32566
 C765 C 0.41197 0.51658 -0.30245
 C766 C 0.40043 0.51066 -0.28227
 N767 N 0.37907 0.50649 -0.28391
 H768 H 0.36622 0.46475 -0.22584
 H769 H 0.39122 0.52749 -0.22906
 H770 H 0.41135 0.52192 -0.19171
 H771 H 0.38580 0.45804 -0.18875
 H772 H 0.35167 0.50362 -0.30586
 H773 H 0.37104 0.51369 -0.34238
 H774 H 0.42888 0.52030 -0.30104
 H775 H 0.40843 0.50995 -0.26530
 C776 C 0.32285 0.43909 -0.26883
 C777 C 0.32296 0.56410 -0.24164
 C778 C 0.40130 0.51800 -0.32422
 C779 C 0.40013 0.48946 -0.18767
 C780 C 0.66952 -0.02628 -0.22545
 H781 H 0.67140 -0.01213 -0.21440
 C782 C 0.68054 -0.04415 -0.22055
 H783 H 0.69144 -0.04444 -0.20560
 C784 C 0.65190 -0.04285 -0.25849
 H785 H 0.64041 -0.04269 -0.27276
 C786 C 0.66372 -0.06274 -0.25386
 H787 H 0.66104 -0.07659 -0.26526
 N788 N 0.65500 -0.02586 -0.24532
 C789 C 0.64542 0.04004 -0.26727
 H790 H 0.62828 0.03926 -0.27014
 C791 C 0.65625 0.05917 -0.27078
 H792 H 0.64742 0.07318 -0.27642
 C793 C 0.67764 0.02293 -0.25534
 H794 H 0.68581 0.00882 -0.24912
 C795 C 0.68914 0.04184 -0.25859
 H796 H 0.70616 0.04226 -0.25472
 Zn797 Zn 0.63861 -0.00100 -0.25173
 N798 N 0.65607 0.02260 -0.25909
 C799 C 0.62470 0.02539 -0.21362
 N800 N 0.62206 0.00596 -0.22442
 C801 C 0.60855 -0.00887 -0.21528
 C802 C 0.59668 -0.00419 -0.19474
 C803 C 0.61318 0.03069 -0.19310
 C804 C 0.63182 -0.00873 -0.29958
 C805 C 0.62073 -0.01423 -0.32021
 C806 C 0.58774 -0.01408 -0.29751
 C807 C 0.59949 -0.00856 -0.27721
 N808 N 0.62118 -0.00640 -0.27857
 H809 H 0.63593 0.03678 -0.22064
 H810 H 0.60709 -0.02436 -0.22389
 H811 H 0.58592 -0.01604 -0.18756
 H812 H 0.61540 0.04618 -0.18465
 H813 H 0.64905 -0.00678 -0.30012
 H814 H 0.62938 -0.01634 -0.33680
 H815 H 0.57051 -0.01604 -0.29636
 H816 H 0.59131 -0.00633 -0.26043
 C817 C 0.67821 0.06020 -0.26596
 C818 C 0.67748 -0.06341 -0.23569
 C819 C 0.59855 -0.01717 -0.31911
 C820 C 0.59904 0.01580 -0.18361
 C821 C 0.03130 0.26240 0.83928
 H822 H 0.02138 0.27663 0.83889
 C823 C 0.05006 0.26126 0.82565
 H824 H 0.05460 0.27463 0.81469
 C825 C 0.03797 0.22787 0.85459
 H826 H 0.03350 0.21505 0.86624
 C827 C 0.05684 0.22607 0.84124
 H828 H 0.06671 0.21183 0.84255
 N829 N 0.02556 0.24580 0.85332
 C830 C -0.04360 0.25197 0.86497
 H831 H -0.04398 0.25110 0.88415
 C832 C -0.06273 0.25388 0.85230
 H833 H -0.07790 0.25448 0.86173
 C834 C -0.02341 0.25211 0.82923
 H835 H -0.00808 0.25118 0.82029
 C836 C -0.04221 0.25400 0.81585
 H837 H -0.04130 0.25465 0.79666
 Zn838 Zn 0.00055 0.24890 0.87250
 N839 N -0.02442 0.25139 0.85338
 C840 C -0.01033 0.29051 0.88931
 N841 N 0.00390 0.27408 0.89155
 C842 C 0.02136 0.27596 0.90594
 C843 C 0.02491 0.29489 0.91890
 C844 C -0.00739 0.30964 0.90192
 C845 C -0.00765 0.20574 0.87942
 C846 C -0.01031 0.18666 0.89165
 C847 C -0.00402 0.20587 0.92847
 C848 C -0.00149 0.22467 0.91551
 N849 N -0.00304 0.22420 0.89138
 H850 H -0.02376 0.28906 0.87734
 H851 H 0.03269 0.26286 0.90706
 H852 H 0.03894 0.29634 0.93011
 H853 H -0.01870 0.32267 0.89977
 H854 H -0.00904 0.20585 0.86027
 H855 H -0.01369 0.17201 0.88190
 H856 H -0.00251 0.20628 0.94763
 H857 H 0.00181 0.23955 0.92473
 C858 C -0.06205 0.25499 0.82752
 C859 C 0.06297 0.24293 0.82667
 C860 C -0.00836 0.18667 0.91638
 C861 C 0.01042 0.31192 0.91678
 C862 C 0.46885 0.26676 0.15863
 H863 H 0.47857 0.28103 0.15963
 C864 C 0.45010 0.26534 0.17226
 H865 H 0.44539 0.27854 0.18380
 C866 C 0.46276 0.23230 0.14202
 H867 H 0.46747 0.21957 0.12994
 C868 C 0.44393 0.23024 0.15531
 H869 H 0.43435 0.21590 0.15350
 N870 N 0.47492 0.25028 0.14402
 C871 C 0.54441 0.25627 0.13407
 H872 H 0.54523 0.25557 0.11488
 C873 C 0.56328 0.25770 0.14736
 H874 H 0.57866 0.25813 0.13838
 C875 C 0.52343 0.25620 0.16924
 H876 H 0.50792 0.25529 0.17774
 C877 C 0.54195 0.25760 0.18322
 H878 H 0.54060 0.25790 0.20240
 Zn879 Zn 0.50026 0.25321 0.12533
 N880 N 0.52496 0.25575 0.14509
 C881 C 0.51135 0.29450 0.10883
 N882 N 0.49707 0.27819 0.10645
 C883 C 0.47992 0.27986 0.09160
 C884 C 0.47687 0.29832 0.07812
 C885 C 0.50891 0.31316 0.09571
 C886 C 0.50889 0.20986 0.11780
 C887 C 0.51161 0.19059 0.10531
 C888 C 0.50545 0.20940 0.06874
 C889 C 0.50286 0.22840 0.08194
 N890 N 0.50429 0.22822 0.10608
 H891 H 0.52455 0.29323 0.12111
 H892 H 0.46855 0.26688 0.09032
 H893 H 0.46321 0.29949 0.06634
 H894 H 0.52040 0.32600 0.09776
 H895 H 0.51016 0.21018 0.13696
 H896 H 0.51494 0.17604 0.11489
 H897 H 0.50398 0.20959 0.04957
 H898 H 0.49956 0.24317 0.07289
 C899 C 0.56207 0.25839 0.17217
 C900 C 0.43753 0.24688 0.17060
 C901 C 0.50972 0.19029 0.08057
 C902 C 0.49154 0.31514 0.08019
 C903 C -0.03190 0.76498 0.65863
 H904 H -0.02206 0.77919 0.65937
 C905 C -0.04950 0.76367 0.67226
 H906 H -0.05385 0.77684 0.68403
 C907 C -0.03774 0.73043 0.64134
 H908 H -0.03345 0.71772 0.62906
 C909 C -0.05728 0.72830 0.65603
 H910 H -0.06686 0.71392 0.65441
 N911 N -0.02596 0.74758 0.64292
 C912 C 0.04328 0.75342 0.63113
 H913 H 0.04365 0.75244 0.61193
 C914 C 0.06243 0.75543 0.64382
 H915 H 0.07757 0.75597 0.63438
 C916 C 0.02313 0.75383 0.66690
 H917 H 0.00782 0.75301 0.67585
 C918 C 0.04195 0.75584 0.68029
 H919 H 0.04104 0.75666 0.69950
 Zn920 Zn -0.00099 0.75060 0.62358
 N921 N 0.02410 0.75295 0.64272
 C922 C 0.01006 0.79206 0.60773
 N923 N -0.00435 0.77588 0.60520
 C924 C -0.02154 0.77784 0.59044
 C925 C -0.02440 0.79641 0.57709
 C926 C 0.00779 0.81082 0.59476
 C927 C 0.00723 0.70719 0.61476
 C928 C 0.00994 0.68827 0.60159
 C929 C 0.00389 0.70817 0.56573
 C930 C 0.00130 0.72677 0.57960
 N931 N 0.00270 0.72590 0.60371
 H932 H 0.02327 0.79060 0.61996
 H933 H -0.03301 0.76495 0.58903
 H934 H -0.03803 0.79778 0.56529
 H935 H 0.01943 0.82352 0.59689
 H936 H 0.00853 0.70695 0.63392
 H937 H 0.01325 0.67343 0.61063
 H938 H 0.00247 0.70895 0.54658
 H939 H -0.00188 0.74182 0.57106
 C940 C 0.06177 0.75675 0.66863
 C941 C -0.06295 0.74425 0.67093
 C942 C 0.00814 0.68871 0.57684
 C943 C -0.00953 0.81305 0.57924
 C944 C 0.53081 0.76255 0.34104
 H945 H 0.52111 0.77691 0.34020
 C946 C 0.54980 0.76094 0.32781
 H947 H 0.55474 0.77408 0.31673
 C948 C 0.53673 0.72819 0.35714
 H949 H 0.53191 0.71563 0.36896
 C950 C 0.55579 0.72594 0.34422
 H951 H 0.56544 0.71161 0.34607
 N952 N 0.52460 0.74626 0.35529
 C953 C 0.45538 0.75305 0.36625
 H954 H 0.45491 0.75215 0.38542
 C955 C 0.43631 0.75503 0.35348
 H956 H 0.42111 0.75566 0.36284
 C957 C 0.47574 0.75317 0.33062
 H958 H 0.49111 0.75223 0.32177
 C959 C 0.45699 0.75515 0.31714
 H960 H 0.45799 0.75584 0.29795
 Zn961 Zn 0.49941 0.74977 0.37415
 N962 N 0.47461 0.75241 0.35476
 C963 C 0.48858 0.79147 0.39079
 N964 N 0.50278 0.77502 0.39313
 C965 C 0.52000 0.77679 0.40788
 C966 C 0.52322 0.79553 0.42130
 C967 C 0.49120 0.81041 0.40384
 C968 C 0.49057 0.70669 0.38143
 C969 C 0.48775 0.68772 0.39385
 C970 C 0.49418 0.70716 0.43048
 C971 C 0.49686 0.72584 0.41735
 N972 N 0.49535 0.72520 0.39321
 H973 H 0.47534 0.79012 0.37855
 H974 H 0.53131 0.76368 0.40910
 H975 H 0.53695 0.79681 0.43298
 H976 H 0.47980 0.82338 0.40178
 H977 H 0.48924 0.70665 0.36228
 H978 H 0.48430 0.67302 0.38423
 H979 H 0.49574 0.70770 0.44964
 H980 H 0.50029 0.74074 0.42644
 C981 C 0.43710 0.75618 0.32871
 C982 C 0.56243 0.74246 0.32946
 C983 C 0.48972 0.68789 0.41859
 C984 C 0.50865 0.81251 0.41924
 B985 B -0.01338 0.01180 1.01353
 B986 B -0.02600 0.00567 0.98837
 B987 B -0.00577 0.02299 0.98827
 B988 B 0.01291 0.01517 1.00796
 B989 B 0.00366 -0.00795 1.02025
 B990 B -0.02082 -0.01364 1.00808
 B991 B 0.00888 -0.01484 0.97270
 B992 B 0.02150 -0.00867 0.99786
 B993 B 0.00129 -0.02602 0.99799
 B994 B -0.01741 -0.01821 0.97828
 B995 B -0.00816 0.00494 0.96597
 B996 B 0.01632 0.01063 0.97814
 B997 B 0.48719 0.51198 0.51248
 B998 B 0.47462 0.50618 0.48718
 B999 B 0.49493 0.52342 0.48741
 B1000 B 0.51351 0.51529 0.50708
 B1001 B 0.50410 0.49208 0.51902
 B1002 B 0.47963 0.48663 0.50667
 B1003 B 0.50949 0.48569 0.47140
 B1004 B 0.52203 0.49152 0.49671
 B1005 B 0.50173 0.47427 0.49651
 B1006 B 0.48315 0.48238 0.47681
 B1007 B 0.49256 0.50562 0.46486
 B1008 B 0.51703 0.51107 0.47722
 B1009 B 0.51330 0.98977 0.51578
 B1010 B 0.52617 0.99455 0.49048
 B1011 B 0.50577 0.97744 0.49082
 B1012 B 0.48702 0.98640 0.51018
 B1013 B 0.49642 1.01000 0.52181
 B1014 B 0.52107 1.01484 0.50958
 B1015 B 0.49162 1.01465 0.47406
 B1016 B 0.47875 1.00984 0.49933
 B1017 B 0.49915 1.02695 0.49902
 B1018 B 0.51791 1.01800 0.47964
 B1019 B 0.50849 0.99439 0.46800
 B1020 B 0.48387 0.98954 0.48023
 B1021 B 0.01341 0.48845 1.01334
 B1022 B 0.02652 0.49492 0.98868
 B1023 B 0.00671 0.47713 0.98755
 B1024 B -0.01264 0.48449 1.00698
 B1025 B -0.00423 0.50780 1.02020
 B1026 B 0.02041 0.51406 1.00884
 B1027 B -0.00845 0.51465 0.97273
 B1028 B -0.02153 0.50816 0.99739
 B1029 B -0.00173 0.52594 0.99855
 B1030 B 0.01762 0.51860 0.97908
 B1031 B 0.00921 0.49527 0.96584
 B1032 B -0.01543 0.48900 0.97722
 B1033 B 0.00986 0.51217 0.47733
 B1034 B 0.02301 0.50728 0.50239
 B1035 B 0.00293 0.52496 0.50232
 B1036 B -0.01628 0.51632 0.48349
 B1037 B -0.00749 0.49234 0.47197
 B1038 B 0.01722 0.48694 0.48369
 B1039 B -0.01168 0.48833 0.51991
 B1040 B -0.02483 0.49322 0.49485
 B1041 B -0.00474 0.47556 0.49493
 B1042 B 0.01446 0.48419 0.51375
 B1043 B 0.00567 0.50817 0.52529
 B1044 B -0.01905 0.51356 0.51356
 B1045 B 0.51094 0.01316 -0.01843
 B1046 B 0.52366 0.00769 0.00674
 B1047 B 0.50403 0.02586 0.00662
 B1048 B 0.48483 0.01788 -0.01257
 B1049 B 0.49317 -0.00619 -0.02428
 B1050 B 0.51760 -0.01230 -0.01230
 B1051 B 0.48833 -0.01060 0.02353
 B1052 B 0.47560 -0.00513 -0.00165
 B1053 B 0.49525 -0.02326 -0.00152
 B1054 B 0.51442 -0.01530 0.01767
 B1055 B 0.50609 0.00876 0.02940
 B1056 B 0.48165 0.01487 0.01741
 B1057 B 0.48400 0.49110 -0.01705
 B1058 B 0.47313 0.49536 0.00963
 B1059 B 0.49298 0.47765 0.00628
 B1060 B 0.51053 0.48673 -0.01406
 B1061 B 0.50095 0.51099 -0.02308
 B1062 B 0.47741 0.51614 -0.00839
 B1063 B 0.50930 0.51383 0.02428
 B1064 B 0.52017 0.50951 -0.00239
 B1065 B 0.50030 0.52720 0.00096
 B1066 B 0.48278 0.51816 0.02132
 B1067 B 0.49239 0.49390 0.03041
 B1068 B 0.51591 0.48874 0.01568
 B1069 B -0.01342 0.98765 0.47972
 B1070 B -0.02547 0.99272 0.50560
 B1071 B -0.00524 0.97527 0.50410
 B1072 B 0.01301 0.98389 0.48428
 B1073 B 0.00345 1.00762 0.47360
 B1074 B -0.02077 1.01288 0.48684
 B1075 B 0.00972 1.01230 0.52126
 B1076 B 0.02178 1.00723 0.49539
 B1077 B 0.00152 1.02466 0.49690
 B1078 B -0.01669 1.01606 0.51673
 B1079 B -0.00712 0.99234 0.52742
 B1080 B 0.01709 0.98707 0.51417
 B1081 B 0.76094 0.23348 0.23486
 B1082 B 0.75527 0.22092 0.25998
 B1083 B 0.77295 0.24083 0.26001
 B1084 B 0.76483 0.25961 0.24076
 B1085 B 0.74117 0.25074 0.22882
 B1086 B 0.73545 0.22638 0.24074
 B1087 B 0.73561 0.25593 0.27658
 B1088 B 0.74130 0.26846 0.25147
 B1089 B 0.72361 0.24857 0.25141
 B1090 B 0.73171 0.22978 0.27069
 B1091 B 0.75539 0.23866 0.28264
 B1092 B 0.76111 0.26301 0.27070
 B1093 B 0.73987 0.76238 0.73877
 B1094 B 0.74584 0.77531 0.76390
 B1095 B 0.72842 0.75519 0.76413
 B1096 B 0.73641 0.73627 0.74439
 B1097 B 0.75972 0.74528 0.73191
 B1098 B 0.76537 0.76984 0.74404
 B1099 B 0.76626 0.74068 0.77942
 B1100 B 0.76025 0.72779 0.75428
 B1101 B 0.77769 0.74792 0.75402
 B1102 B 0.76972 0.76682 0.77382
 B1103 B 0.74638 0.75781 0.78631
 B1104 B 0.74073 0.73325 0.77415
 B1105 B 0.26447 0.26326 0.77250
 B1106 B 0.25934 0.27615 0.74746
 B1107 B 0.27711 0.25618 0.74751
 B1108 B 0.26862 0.23717 0.76627
 B1109 B 0.24463 0.24598 0.77777
 B1110 B 0.23910 0.27051 0.76609
 B1111 B 0.24024 0.24145 0.72982
 B1112 B 0.24535 0.22854 0.75484
 B1113 B 0.22763 0.24853 0.75477
 B1114 B 0.23611 0.26753 0.73603
 B1115 B 0.26007 0.25871 0.72452
 B1116 B 0.26561 0.23418 0.73619
 B1117 B 0.23749 0.73735 0.26754
 B1118 B 0.24320 0.72424 0.24239
 B1119 B 0.22545 0.74423 0.24238
 B1120 B 0.23350 0.76339 0.26169
 B1121 B 0.25718 0.75467 0.27361
 B1122 B 0.26300 0.73004 0.26164
 B1123 B 0.26277 0.75882 0.22589
 B1124 B 0.25702 0.77193 0.25101
 B1125 B 0.27475 0.75194 0.25103
 B1126 B 0.26674 0.73279 0.23171
 B1127 B 0.24305 0.74151 0.21976
 B1128 B 0.23724 0.76614 0.23176
 B1129 B 0.26120 0.73978 0.73244
 B1130 B 0.25531 0.72712 0.75742
 B1131 B 0.27290 0.74711 0.75778
 B1132 B 0.26491 0.76592 0.73848
 B1133 B 0.24144 0.75698 0.72618
 B1134 B 0.23569 0.73256 0.73792
 B1135 B 0.23529 0.76199 0.77386
 B1136 B 0.24120 0.77464 0.74889
 B1137 B 0.22362 0.75465 0.74850
 B1138 B 0.23158 0.73585 0.76782
 B1139 B 0.25508 0.74479 0.78014
 B1140 B 0.26083 0.76920 0.76838
 B1141 B 0.23828 0.26267 0.23792
 B1142 B 0.24438 0.27618 0.26266
 B1143 B 0.22712 0.25594 0.26360
 B1144 B 0.23507 0.23668 0.24427
 B1145 B 0.25820 0.24559 0.23130
 B1146 B 0.26376 0.27044 0.24272
 B1147 B 0.26520 0.24207 0.27886
 B1148 B 0.25906 0.22860 0.25414
 B1149 B 0.27634 0.24883 0.25315
 B1150 B 0.26840 0.26810 0.27253
 B1151 B 0.24525 0.25918 0.28551
 B1152 B 0.23968 0.23434 0.27407
 B1153 B 0.76387 0.76006 0.27188
 B1154 B 0.75822 0.77249 0.24667
 B1155 B 0.77622 0.75272 0.24680
 B1156 B 0.76824 0.73393 0.26609
 B1157 B 0.74435 0.74266 0.27785
 B1158 B 0.73834 0.76692 0.26581
 B1159 B 0.73923 0.73726 0.23011
 B1160 B 0.74493 0.72485 0.25531
 B1161 B 0.72694 0.74463 0.25517
 B1162 B 0.73489 0.76340 0.23587
 B1163 B 0.75878 0.75466 0.22408
 B1164 B 0.76481 0.73040 0.23614
 B1165 B 0.73783 0.23646 0.76778
 B1166 B 0.74371 0.22310 0.74283
 B1167 B 0.72590 0.24304 0.74246
 B1168 B 0.73380 0.26242 0.76158
 B1169 B 0.75745 0.25388 0.77376
 B1170 B 0.76339 0.22915 0.76212
 B1171 B 0.76326 0.25755 0.72600
 B1172 B 0.75736 0.27091 0.75093
 B1173 B 0.77514 0.25095 0.75130
 B1174 B 0.76726 0.23158 0.73218
 B1175 B 0.74361 0.24013 0.71997
 B1176 B 0.73768 0.26487 0.73162
 C1177 C 0.45968 1.03751 0.41490
 C1178 C 0.43806 1.04431 0.41627
 C1179 C 0.42507 1.04377 0.39557
 C1180 C 0.43397 1.03667 0.37368
 C1181 C 0.45616 1.03196 0.37193
 C1182 C 0.46906 1.03236 0.39266
 C1183 C 0.49108 1.02699 0.39071
 C1184 C 0.50012 1.02146 0.36882
 C1185 C 0.48749 1.02108 0.34849
 C1186 C 0.46574 1.02622 0.34993
 C1187 C 0.40327 1.04992 0.39745
 C1188 C 0.39465 1.05677 0.41914
 C1189 C 0.40745 1.05756 0.43933
 C1190 C 0.42890 1.05124 0.43806
 C1191 C 0.42017 1.03220 0.35356
 C1192 C 0.40913 1.02733 0.33684
 C1193 C 0.47118 1.03236 0.43636
 C1194 C 0.48048 1.02592 0.45353
 H1195 H 0.50155 1.02720 0.40604
 H1196 H 0.51701 1.01745 0.36761
 H1197 H 0.49458 1.01677 0.33152
 H1198 H 0.45657 1.02578 0.33363
 H1199 H 0.39277 1.04968 0.38216
 H1200 H 0.37795 1.06151 0.42028
 H1201 H 0.40070 1.06295 0.45610
 H1202 H 0.43828 1.05199 0.45422
 C1203 C -0.04197 0.53895 0.91533
 C1204 C -0.06460 0.53989 0.91685
 C1205 C -0.07706 0.53919 0.89578
 C1206 C -0.06674 0.53773 0.87340
 C1207 C -0.04412 0.53906 0.87188
 C1208 C -0.03168 0.53966 0.89296
 C1209 C -0.00905 0.54031 0.89113
 C1210 C 0.00101 0.54049 0.86900
 C1211 C -0.01117 0.53993 0.84833
 C1212 C -0.03349 0.53918 0.84965
 C1213 C -0.09970 0.53938 0.89770
 C1214 C -0.10972 0.54037 0.91986
 C1215 C -0.09749 0.54113 0.94049
 C1216 C -0.07516 0.54085 0.93911
 C1217 C -0.07910 0.53256 0.85232
 C1218 C -0.08917 0.52719 0.83502
 C1219 C -0.02965 0.53336 0.93611
 C1220 C -0.01985 0.52651 0.95275
 H1221 H 0.00103 0.54087 0.90676
 H1222 H 0.01834 0.54107 0.86789
 H1223 H -0.00328 0.54008 0.83119
 H1224 H -0.04232 0.53883 0.83312
 H1225 H -0.10984 0.53891 0.88212
 H1226 H -0.12705 0.54058 0.92103
 H1227 H -0.10536 0.54195 0.95762
 H1228 H -0.06625 0.54162 0.95557
 C1229 C 0.04192 -0.03880 0.91416
 C1230 C 0.03123 -0.03896 0.89205
 C1231 C 0.04328 -0.03774 0.87070
 C1232 C 0.06592 -0.03642 0.87172
 C1233 C 0.07665 -0.03846 0.89372
 C1234 C 0.06456 -0.03968 0.91506
 C1235 C 0.07550 -0.04106 0.93698
 C1236 C 0.09785 -0.04132 0.93778
 C1237 C 0.10971 -0.04014 0.91688
 C1238 C 0.09931 -0.03868 0.89504
 C1239 C 0.03225 -0.03722 0.84877
 C1240 C 0.00991 -0.03794 0.84801
 C1241 C -0.00189 -0.03912 0.86894
 C1242 C 0.00857 -0.03959 0.89078
 C1243 C 0.07791 -0.03074 0.85065
 C1244 C 0.08777 -0.02510 0.83344
 C1245 C 0.02996 -0.03356 0.93549
 C1246 C 0.02032 -0.02683 0.95251
 H1247 H 0.06687 -0.04212 0.95362
 H1248 H 0.10600 -0.04244 0.95468
 H1249 H 0.12707 -0.04035 0.91758
 H1250 H 0.10917 -0.03786 0.87924
 H1251 H 0.04078 -0.03636 0.83205
 H1252 H 0.00171 -0.03757 0.83109
 H1253 H -0.01924 -0.03968 0.86826
 H1254 H -0.00122 -0.04063 0.90663
 C1255 C 0.54320 0.46133 0.41338
 C1256 C 0.53283 0.45968 0.39113
 C1257 C 0.54515 0.46001 0.36991
 C1258 C 0.56774 0.46194 0.37118
 C1259 C 0.57820 0.46139 0.39346
 C1260 C 0.56585 0.46113 0.41466
 C1261 C 0.57654 0.46133 0.43680
 C1262 C 0.59887 0.46158 0.43796
 C1263 C 0.61099 0.46175 0.41719
 C1264 C 0.60085 0.46173 0.39513
 C1265 C 0.53444 0.45898 0.34780
 C1266 C 0.51215 0.45757 0.34673
 C1267 C 0.50008 0.45725 0.36753
 C1268 C 0.51023 0.45835 0.38955
 C1269 C 0.57991 0.46676 0.34998
 C1270 C 0.59003 0.47176 0.33269
 C1271 C 0.53083 0.46696 0.43431
 C1272 C 0.52099 0.47381 0.45116
 H1273 H 0.56772 0.46117 0.45335
 H1274 H 0.60682 0.46166 0.45504
 H1275 H 0.62833 0.46194 0.41817
 H1276 H 0.61091 0.46183 0.37944
 H1277 H 0.54319 0.45911 0.33118
 H1278 H 0.50419 0.45672 0.32967
 H1279 H 0.48277 0.45615 0.36661
 H1280 H 0.50024 0.45796 0.40529
 C1281 C 0.54801 0.53456 0.07995
 C1282 C 0.53996 0.54426 0.10098
 C1283 C 0.55286 0.54485 0.12174
 C1284 C 0.57375 0.53592 0.12116
 C1285 C 0.58252 0.52818 0.09950
 C1286 C 0.56949 0.52715 0.07889
 C1287 C 0.57818 0.51813 0.05777
 C1288 C 0.59942 0.51116 0.05676
 C1289 C 0.61232 0.51257 0.07683
 C1290 C 0.60400 0.52081 0.09806
 C1291 C 0.54431 0.55400 0.14283
 C1292 C 0.52358 0.56247 0.14334
 C1293 C 0.51097 0.56195 0.12299
 C1294 C 0.51897 0.55291 0.10199
 C1295 C 0.58513 0.53210 0.14310
 C1296 C 0.59451 0.52744 0.16098
 C1297 C 0.53371 0.52983 0.06040
 C1298 C 0.52238 0.52406 0.04433
 H1299 H 0.56872 0.51654 0.04177
 H1300 H 0.60588 0.50462 0.04034
 H1301 H 0.62882 0.50713 0.07598
 H1302 H 0.61459 0.52152 0.11325
 H1303 H 0.55361 0.55483 0.15903
 H1304 H 0.51729 0.56950 0.15960
 H1305 H 0.49489 0.56856 0.12347
 H1306 H 0.50864 0.55287 0.08656
 C1307 C 0.04466 1.03596 0.57866
 C1308 C 0.03450 1.04233 0.60010
 C1309 C 0.04654 1.04331 0.62147
 C1310 C 0.06863 1.03803 0.62113
 C1311 C 0.07918 1.03375 0.59930
 C1312 C 0.06710 1.03246 0.57800
 C1313 C 0.07775 1.02703 0.55654
 C1314 C 0.09986 1.02364 0.55599
 C1315 C 0.11175 1.02521 0.57680
 C1316 C 0.10159 1.03007 0.59829
 C1317 C 0.03598 1.04908 0.64288
 C1318 C 0.01411 1.05386 0.64312
 C1319 C 0.00233 1.05292 0.62218
 C1320 C 0.01232 1.04718 0.60085
 C1321 C 0.07986 1.03431 0.64321
 C1322 C 0.08923 1.02982 0.66116
 C1323 C 0.03183 1.03017 0.55819
 C1324 C 0.02164 1.02352 0.54159
 H1325 H 0.06912 1.02544 0.54000
 H1326 H 0.10777 1.01972 0.53934
 H1327 H 0.12892 1.02255 0.57631
 H1328 H 0.11147 1.03108 0.61405
 H1329 H 0.04455 1.05010 0.65955
 H1330 H 0.00627 1.05832 0.65963
 H1331 H -0.01465 1.05665 0.62246
 H1332 H 0.00257 1.04671 0.58497
 C1333 C -0.04389 0.46608 0.57945
 C1334 C -0.03282 0.46441 0.60125
 C1335 C -0.04451 0.46429 0.62292
 C1336 C -0.06717 0.46580 0.62257
 C1337 C -0.07828 0.46554 0.60066
 C1338 C -0.06657 0.46573 0.57901
 C1339 C -0.07795 0.46616 0.55730
 C1340 C -0.10031 0.46621 0.55699
 C1341 C -0.11178 0.46591 0.57819
 C1342 C -0.10097 0.46563 0.59984
 C1343 C -0.03312 0.46315 0.64458
 C1344 C -0.01078 0.46209 0.64479
 C1345 C 0.00067 0.46221 0.62356
 C1346 C -0.01015 0.46340 0.60197
 C1347 C -0.07887 0.46970 0.64449
 C1348 C -0.08864 0.47390 0.66244
 C1349 C -0.03216 0.47132 0.55809
 C1350 C -0.02277 0.47755 0.54085
 H1351 H -0.06965 0.46634 0.54043
 H1352 H -0.10878 0.46651 0.54024
 H1353 H -0.12915 0.46593 0.57786
 H1354 H -0.11056 0.46538 0.61588
 H1355 H -0.04136 0.46295 0.66151
 H1356 H -0.00230 0.46116 0.66151
 H1357 H 0.01802 0.46138 0.62381
 H1358 H -0.00061 0.46336 0.58588
 C1359 C 0.45479 -0.03264 0.08225
 C1360 C 0.46544 -0.03423 0.10431
 C1361 C 0.45334 -0.03436 0.12571
 C1362 C 0.43068 -0.03294 0.12482
 C1363 C 0.42000 -0.03321 0.10266
 C1364 C 0.43212 -0.03302 0.08128
 C1365 C 0.42116 -0.03263 0.05931
 C1366 C 0.39881 -0.03257 0.05848
 C1367 C 0.38694 -0.03285 0.07940
 C1368 C 0.39733 -0.03312 0.10130
 C1369 C 0.46432 -0.03541 0.14763
 C1370 C 0.48665 -0.03637 0.14837
 C1371 C 0.49850 -0.03623 0.12742
 C1372 C 0.48810 -0.03514 0.10558
 C1373 C 0.41856 -0.02918 0.14648
 C1374 C 0.40850 -0.02513 0.16427
 C1375 C 0.46694 -0.02748 0.06116
 C1376 C 0.47670 -0.02131 0.04415
 H1377 H 0.42978 -0.03249 0.04263
 H1378 H 0.39065 -0.03228 0.04154
 H1379 H 0.36958 -0.03282 0.07867
 H1380 H 0.38744 -0.03336 0.11712
 H1381 H 0.45576 -0.03562 0.16437
 H1382 H 0.49481 -0.03723 0.16529
 H1383 H 0.51585 -0.03698 0.12808
 H1384 H 0.49795 -0.03516 0.08972
 C1385 C 0.41094 0.47369 0.02235
 C1386 C 0.40749 0.45651 0.03799
 C1387 C 0.38661 0.44778 0.04040
 C1388 C 0.36933 0.45644 0.02732
 C1389 C 0.37269 0.47403 0.01220
 C1390 C 0.39360 0.48264 0.00964
 C1391 C 0.39670 0.50000 -0.00589
 C1392 C 0.37957 0.50865 -0.01847
 C1393 C 0.35909 0.50028 -0.01590
 C1394 C 0.35559 0.48316 -0.00078
 C1395 C 0.38359 0.43030 0.05577
 C1396 C 0.40072 0.42179 0.06849
 C1397 C 0.42111 0.43046 0.06627
 C1398 C 0.42456 0.44762 0.05121
 C1399 C 0.34841 0.44646 0.02821
 C1400 C 0.33124 0.43772 0.02802
 C1401 C 0.43243 0.48160 0.01858
 C1402 C 0.45032 0.48791 0.01496
 H1403 H 0.41234 0.50708 -0.00845
 H1404 H 0.38222 0.52193 -0.03025
 H1405 H 0.34583 0.50707 -0.02568
 H1406 H 0.33936 0.47722 0.00064
 H1407 H 0.36800 0.42308 0.05815
 H1408 H 0.39814 0.40839 0.08013
 H1409 H 0.43438 0.42375 0.07612
 H1410 H 0.44074 0.45373 0.04995
 C1411 C -0.08794 0.97108 0.51611
 C1412 C -0.10458 0.97879 0.50144
 C1413 C -0.12558 0.97029 0.50356
 C1414 C -0.12976 0.95426 0.52046
 C1415 C -0.11313 0.94673 0.53533
 C1416 C -0.09214 0.95524 0.53320
 C1417 C -0.07573 0.94750 0.54820
 C1418 C -0.07991 0.93164 0.56471
 C1419 C -0.10042 0.92319 0.56670
 C1420 C -0.11691 0.93062 0.55225
 C1421 C -0.14191 0.97794 0.48840
 C1422 C -0.13761 0.99359 0.47166
 C1423 C -0.11709 1.00201 0.46969
 C1424 C -0.10070 0.99476 0.48437
 C1425 C -0.15090 0.94484 0.52180
 C1426 C -0.16824 0.93646 0.52230
 C1427 C -0.06635 0.97890 0.51303
 C1428 C -0.04837 0.98517 0.51005
 H1429 H -0.05949 0.95351 0.54723
 H1430 H -0.06713 0.92579 0.57593
 H1431 H -0.10357 0.91082 0.57949
 H1432 H -0.13261 0.92359 0.55448
 H1433 H -0.15813 0.97189 0.48926
 H1434 H -0.15027 0.99919 0.46012
 H1435 H -0.11381 1.01411 0.45662
 H1436 H -0.08496 1.00170 0.48207
 C1437 C -0.08867 0.02800 0.97938
 C1438 C -0.10634 0.01513 0.98576
 C1439 C -0.12750 0.02352 0.98436
 C1440 C -0.13082 0.04472 0.97664
 C1441 C -0.11315 0.05750 0.96997
 C1442 C -0.09199 0.04914 0.97146
 C1443 C -0.07452 0.06240 0.96531
 C1444 C -0.07791 0.08330 0.95785
 C1445 C -0.09862 0.09142 0.95622
 C1446 C -0.11611 0.07874 0.96218
 C1447 C -0.14492 0.01050 0.99118
 C1448 C -0.14150 -0.01021 0.99925
 C1449 C -0.12078 -0.01840 1.00069
 C1450 C -0.10334 -0.00595 0.99402
 C1451 C -0.15209 0.05411 0.97764
 C1452 C -0.16929 0.06277 0.97971
 C1453 C -0.06706 0.01981 0.98183
 C1454 C -0.04904 0.01330 0.98434
 H1455 H -0.05811 0.05679 0.96632
 H1456 H -0.06442 0.09330 0.95334
 H1457 H -0.10117 0.10766 0.95038
 H1458 H -0.13192 0.08579 0.96063
 H1459 H -0.16133 0.01618 0.99035
 H1460 H -0.15500 -0.01994 1.00444
 H1461 H -0.11821 -0.03447 1.00701
 H1462 H -0.08752 -0.01301 0.99549
 C1463 C 0.41266 0.53046 0.47857
 C1464 C 0.39535 0.51789 0.47021
 C1465 C 0.37440 0.52686 0.46919
 C1466 C 0.37095 0.54834 0.47647
 C1467 C 0.38840 0.56109 0.48419
 C1468 C 0.40929 0.55207 0.48541
 C1469 C 0.42640 0.56494 0.49377
 C1470 C 0.42304 0.58624 0.50031
 C1471 C 0.40263 0.59515 0.49890
 C1472 C 0.38543 0.58278 0.49103
 C1473 C 0.35728 0.51397 0.46100
 C1474 C 0.36078 0.49279 0.45397
 C1475 C 0.38129 0.48401 0.45495
 C1476 C 0.39845 0.49635 0.46298
 C1477 C 0.34938 0.55709 0.47749
 C1478 C 0.33188 0.56510 0.47968
 C1479 C 0.43386 0.52117 0.48070
 C1480 C 0.45166 0.51407 0.48312
 H1481 H 0.44256 0.55873 0.49531
 H1482 H 0.43635 0.59588 0.50648
 H1483 H 0.40008 0.61172 0.50398
 H1484 H 0.36986 0.59044 0.49029
 H1485 H 0.34106 0.52013 0.45987
 H1486 H 0.34752 0.48314 0.44771
 H1487 H 0.38393 0.46756 0.44947
 H1488 H 0.41412 0.48884 0.46344
 C1489 C 0.08579 0.52962 0.50888
 C1490 C 0.08967 0.55111 0.50266
 C1491 C 0.11071 0.55955 0.50447
 C1492 C 0.12780 0.54633 0.51216
 C1493 C 0.12393 0.52479 0.51820
 C1494 C 0.10282 0.51641 0.51660
 C1495 C 0.09929 0.49483 0.52273
 C1496 C 0.11616 0.48190 0.53023
 C1497 C 0.13682 0.49009 0.53179
 C1498 C 0.14075 0.51129 0.52586
 C1499 C 0.11417 0.58117 0.49841
 C1500 C 0.09731 0.59403 0.49069
 C1501 C 0.07676 0.58569 0.48868
 C1502 C 0.07291 0.56447 0.49448
 C1503 C 0.14933 0.55492 0.51342
 C1504 C 0.16690 0.56284 0.51391
 C1505 C 0.06426 0.52119 0.50722
 C1506 C 0.04620 0.51470 0.50545
 H1507 H 0.08350 0.48775 0.52177
 H1508 H 0.11319 0.46542 0.53485
 H1509 H 0.14987 0.47998 0.53762
 H1510 H 0.15708 0.51697 0.52736
 H1511 H 0.12988 0.58840 0.49960
 H1512 H 0.10024 0.61054 0.48618
 H1513 H 0.06371 0.59570 0.48262
 H1514 H 0.05666 0.55870 0.49251
 C1515 C 0.58757 0.02635 0.01388
 C1516 C 0.60266 0.01906 -0.00323
 C1517 C 0.62410 0.02663 -0.00239
 C1518 C 0.63028 0.04132 0.01563
 C1519 C 0.61529 0.04819 0.03309
 C1520 C 0.59383 0.04071 0.03218
 C1521 C 0.57901 0.04800 0.04961
 C1522 C 0.58528 0.06226 0.06747
 C1523 C 0.60629 0.06957 0.06839
 C1524 C 0.62119 0.06268 0.05144
 C1525 C 0.63884 0.01947 -0.01995
 C1526 C 0.63256 0.00522 -0.03783
 C1527 C 0.61160 -0.00225 -0.03860
 C1528 C 0.59675 0.00452 -0.02153
 C1529 C 0.65158 0.05048 0.01535
 C1530 C 0.66886 0.05898 0.01478
 C1531 C 0.56544 0.01966 0.01213
 C1532 C 0.54704 0.01429 0.01017
 H1533 H 0.56249 0.04274 0.04964
 H1534 H 0.57381 0.06764 0.08071
 H1535 H 0.61108 0.08065 0.08231
 H1536 H 0.63736 0.06879 0.05292
 H1537 H 0.65534 0.02480 -0.02005
 H1538 H 0.64402 -0.00004 -0.05117
 H1539 H 0.60677 -0.01326 -0.05256
 H1540 H 0.58060 -0.00166 -0.02294
 C1541 C 0.58775 0.96887 0.48317
 C1542 C 0.59109 0.94859 0.49342
 C1543 C 0.61186 0.93922 0.49300
 C1544 C 0.62918 0.95028 0.48248
 C1545 C 0.62572 0.97033 0.47175
 C1546 C 0.60489 0.97965 0.47207
 C1547 C 0.60177 0.99976 0.46134
 C1548 C 0.61878 1.01034 0.45057
 C1549 C 0.63917 1.00123 0.45029
 C1550 C 0.64269 0.98144 0.46075
 C1551 C 0.61484 0.91892 0.50341
 C1552 C 0.59778 0.90824 0.51394
 C1553 C 0.57747 0.91747 0.51446
 C1554 C 0.57408 0.93742 0.50440
 C1555 C 0.65061 0.94132 0.48381
 C1556 C 0.66799 0.93319 0.48623
 C1557 C 0.56675 0.97874 0.48468
 C1558 C 0.54907 0.98627 0.48673
 H1559 H 0.58619 1.00746 0.46111
 H1560 H 0.61612 1.02570 0.44241
 H1561 H 0.65232 1.00952 0.44191
 H1562 H 0.65881 0.97495 0.46006
 H1563 H 0.63034 0.91106 0.50348
 H1564 H 0.60035 0.89272 0.52178
 H1565 H 0.56426 0.90915 0.52268
 H1566 H 0.55799 0.94394 0.50531
 C1567 C 0.08902 0.47143 0.98178
 C1568 C 0.10710 0.48459 0.97820
 C1569 C 0.12802 0.47546 0.97813
 C1570 C 0.13065 0.45324 0.98168
 C1571 C 0.11249 0.44000 0.98473
 C1572 C 0.09161 0.44914 0.98484
 C1573 C 0.07370 0.43566 0.98837
 C1574 C 0.07634 0.41377 0.99155
 C1575 C 0.09677 0.40480 0.99135
 C1576 C 0.11470 0.41768 0.98801
 C1577 C 0.14591 0.48893 0.97472
 C1578 C 0.14320 0.51083 0.97145
 C1579 C 0.12274 0.51977 0.97153
 C1580 C 0.10483 0.50687 0.97487
 C1581 C 0.15195 0.44408 0.98370
 C1582 C 0.16916 0.43568 0.98654
 C1583 C 0.06775 0.48073 0.98322
 C1584 C 0.04978 0.48762 0.98512
 H1585 H 0.05751 0.44190 0.98880
 H1586 H 0.06246 0.40372 0.99422
 H1587 H 0.09876 0.38777 0.99383
 H1588 H 0.13025 0.40994 0.98800
 H1589 H 0.16213 0.48268 0.97447
 H1590 H 0.15706 0.52092 0.96884
 H1591 H 0.12072 0.53679 0.96899
 H1592 H 0.08922 0.51453 0.97478
 C1593 C -0.01251 0.41068 0.47762
 C1594 C -0.02850 0.40472 0.46100
 C1595 C -0.02895 0.38351 0.45157
 C1596 C -0.01314 0.36848 0.45843
 C1597 C 0.00228 0.37419 0.47581
 C1598 C 0.00254 0.39532 0.48548
 C1599 C 0.01822 0.40068 0.50267
 C1600 C 0.03322 0.38561 0.51011
 C1601 C 0.03298 0.36497 0.50065
 C1602 C 0.01773 0.35924 0.48367
 C1603 C -0.04519 0.37792 0.43513
 C1604 C -0.06053 0.39285 0.42816
 C1605 C -0.05992 0.41365 0.43716
 C1606 C -0.04404 0.41964 0.45325
 C1607 C -0.01196 0.34763 0.44665
 C1608 C -0.01065 0.33059 0.43636
 C1609 C -0.01059 0.43289 0.48524
 C1610 C -0.00842 0.45153 0.49045
 H1611 H 0.01900 0.41652 0.51059
 H1612 H 0.04509 0.38997 0.52330
 H1613 H 0.04466 0.35333 0.50649
 H1614 H 0.01814 0.34298 0.47688
 H1615 H -0.04627 0.36195 0.42760
 H1616 H -0.07290 0.38828 0.41565
 H1617 H -0.07182 0.42522 0.43162
 H1618 H -0.04416 0.43603 0.45964
 C1619 C 0.48672 -0.08772 -0.02021
 C1620 C 0.47154 -0.09299 -0.03800
 C1621 C 0.47121 -0.11398 -0.04805
 C1622 C 0.48631 -0.12948 -0.04057
 C1623 C 0.50082 -0.12447 -0.02201
 C1624 C 0.50098 -0.10356 -0.01175
 C1625 C 0.51575 -0.09890 0.00663
 C1626 C 0.52996 -0.11445 0.01468
 C1627 C 0.52984 -0.13487 0.00464
 C1628 C 0.51548 -0.13991 -0.01352
 C1629 C 0.45581 -0.11887 -0.06571
 C1630 C 0.44117 -0.10348 -0.07325
 C1631 C 0.44166 -0.08292 -0.06361
 C1632 C 0.45673 -0.07761 -0.04631
 C1633 C 0.48769 -0.15010 -0.05283
 C1634 C 0.48912 -0.16694 -0.06349
 C1635 C 0.48879 -0.06568 -0.01203
 C1636 C 0.49116 -0.04716 -0.00642
 H1637 H 0.51639 -0.08325 0.01503
 H1638 H 0.54113 -0.11063 0.02879
 H1639 H 0.54092 -0.14689 0.01096
 H1640 H 0.51594 -0.15603 -0.02073
 H1641 H 0.45483 -0.13465 -0.07376
 H1642 H 0.42943 -0.10753 -0.08670
 H1643 H 0.43031 -0.07100 -0.06958
 H1644 H 0.45654 -0.06137 -0.03943
 C1645 C 0.00788 -0.08858 1.02229
 C1646 C 0.00449 -0.09027 1.04709
 C1647 C 0.00441 -0.11071 1.05787
 C1648 C 0.00779 -0.12939 1.04384
 C1649 C 0.01182 -0.12764 1.01916
 C1650 C 0.01183 -0.10717 1.00836
 C1651 C 0.01577 -0.10582 0.98368
 C1652 C 0.01971 -0.12417 0.97003
 C1653 C 0.01972 -0.14417 0.98057
 C1654 C 0.01579 -0.14598 1.00485
 C1655 C 0.00083 -0.11194 1.08267
 C1656 C -0.00254 -0.09354 1.09641
 C1657 C -0.00244 -0.07358 1.08588
 C1658 C 0.00102 -0.07186 1.06154
 C1659 C 0.00675 -0.15028 1.05495
 C1660 C 0.00554 -0.16711 1.06517
 C1661 C 0.00654 -0.06767 1.01137
 C1662 C 0.00471 -0.04971 1.00403
 H1663 H 0.01601 -0.09060 0.97476
 H1664 H 0.02280 -0.12287 0.95118
 H1665 H 0.02280 -0.15836 0.96988
 H1666 H 0.01597 -0.16186 1.01227
 H1667 H 0.00063 -0.12709 1.09173
 H1668 H -0.00524 -0.09480 1.11534
 H1669 H -0.00504 -0.05933 1.09664
 H1670 H 0.00100 -0.05594 1.05424
 C1671 C 0.50923 0.41048 0.51698
 C1672 C 0.49423 0.39467 0.51003
 C1673 C 0.49463 0.37422 0.52083
 C1674 C 0.51014 0.36962 0.53843
 C1675 C 0.52588 0.38505 0.54441
 C1676 C 0.52529 0.40559 0.53385
 C1677 C 0.54076 0.42096 0.54074
 C1678 C 0.55675 0.41600 0.55704
 C1679 C 0.55750 0.39584 0.56712
 C1680 C 0.54221 0.38052 0.56105
 C1681 C 0.47924 0.35883 0.51383
 C1682 C 0.46391 0.36347 0.49664
 C1683 C 0.46353 0.38344 0.48609
 C1684 C 0.47846 0.39893 0.49265
 C1685 C 0.50915 0.34958 0.55129
 C1686 C 0.50796 0.33323 0.56244
 C1687 C 0.50724 0.43214 0.50812
 C1688 C 0.50512 0.45044 0.50198
 H1689 H 0.54076 0.43690 0.53350
 H1690 H 0.56860 0.42788 0.56188
 H1691 H 0.56995 0.39206 0.57979
 H1692 H 0.54341 0.36508 0.56941
 H1693 H 0.47894 0.34304 0.52148
 H1694 H 0.45228 0.35149 0.49147
 H1695 H 0.45160 0.38695 0.47273
 H1696 H 0.47757 0.41422 0.48391
 C1697 C 0.49394 1.09171 0.51801
 C1698 C 0.51330 1.10219 0.52408
 C1699 C 0.51271 1.12290 0.53480
 C1700 C 0.49274 1.13303 0.53947
 C1701 C 0.47340 1.12288 0.53254
 C1702 C 0.47402 1.10219 0.52170
 C1703 C 0.45452 1.09236 0.51494
 C1704 C 0.43493 1.10267 0.51876
 C1705 C 0.43429 1.12281 0.52950
 C1706 C 0.45326 1.13288 0.53636
 C1707 C 0.53231 1.13294 0.54086
 C1708 C 0.55191 1.12283 0.53647
 C1709 C 0.55249 1.10259 0.52602
 C1710 C 0.53347 1.09231 0.51987
 C1711 C 0.49226 1.15353 0.55206
 C1712 C 0.49263 1.17032 0.56292
 C1713 C 0.49462 1.06963 0.50963
 C1714 C 0.49603 1.05101 0.50394
 H1715 H 0.45423 1.07669 0.50655
 H1716 H 0.42015 1.09496 0.51342
 H1717 H 0.41902 1.13070 0.53250
 H1718 H 0.45199 1.14858 0.54457
 H1719 H 0.53272 1.14870 0.54899
 H1720 H 0.56673 1.13076 0.54119
 H1721 H 0.56776 1.09481 0.52263
 H1722 H 0.53477 1.07660 0.51170
 C1723 C -0.00961 0.58872 1.02354
 C1724 C -0.00447 0.59139 1.04789
 C1725 C -0.00485 0.61212 1.05853
 C1726 C -0.01043 0.63014 1.04480
 C1727 C -0.01620 0.62737 1.02062
 C1728 C -0.01578 0.60659 1.00997
 C1729 C -0.02160 0.60421 0.98582
 C1730 C -0.02774 0.62185 0.97254
 C1731 C -0.02813 0.64215 0.98291
 C1732 C -0.02242 0.64498 1.00667
 C1733 C 0.00047 0.61434 1.08288
 C1734 C 0.00597 0.59660 1.09634
 C1735 C 0.00632 0.57634 1.08595
 C1736 C 0.00119 0.57366 1.06203
 C1737 C -0.00991 0.65140 1.05566
 C1738 C -0.00911 0.66866 1.06551
 C1739 C -0.00790 0.56759 1.01262
 C1740 C -0.00572 0.54957 1.00511
 H1741 H -0.02162 0.58871 0.97704
 H1742 H -0.03223 0.61975 0.95410
 H1743 H -0.03291 0.65580 0.97250
 H1744 H -0.02300 0.66105 1.01399
 H1745 H 0.00039 0.62976 1.09182
 H1746 H 0.00995 0.59860 1.11493
 H1747 H 0.01058 0.56260 1.09648
 H1748 H 0.00166 0.55754 1.05483
 C1749 C 0.50331 0.59098 -0.01948
 C1750 C 0.51833 0.60670 -0.01239
 C1751 C 0.51810 0.62716 -0.02322
 C1752 C 0.50280 0.63180 -0.04103
 C1753 C 0.48755 0.61616 -0.04784
 C1754 C 0.48781 0.59572 -0.03707
 C1755 C 0.47246 0.58032 -0.04437
 C1756 C 0.45731 0.58500 -0.06171
 C1757 C 0.45707 0.60496 -0.07223
 C1758 C 0.47197 0.62042 -0.06545
 C1759 C 0.53339 0.64255 -0.01596
 C1760 C 0.54845 0.63790 0.00152
 C1761 C 0.54863 0.61794 0.01212
 C1762 C 0.53378 0.60244 0.00530
 C1763 C 0.50292 0.65240 -0.05283
 C1764 C 0.50264 0.66913 -0.06334
 C1765 C 0.50400 0.56961 -0.00961
 C1766 C 0.50333 0.55125 -0.00332
 H1767 H 0.47195 0.56453 -0.03678
 H1768 H 0.44570 0.57304 -0.06704
 H1769 H 0.44528 0.60851 -0.08572
 H1770 H 0.47110 0.63572 -0.07417
 H1771 H 0.53384 0.65830 -0.02367
 H1772 H 0.56003 0.64987 0.00689
 H1773 H 0.56033 0.61450 0.02573
 H1774 H 0.53446 0.58716 0.01408
 C1775 C 0.00803 1.08931 0.47983
 C1776 C 0.02638 1.09631 0.46731
 C1777 C 0.02682 1.11722 0.45766
 C1778 C 0.00873 1.13087 0.46015
 C1779 C -0.00924 1.12418 0.47354
 C1780 C -0.00956 1.10338 0.48346
 C1781 C -0.02779 1.09700 0.49658
 C1782 C -0.04522 1.11076 0.49981
 C1783 C -0.04493 1.13108 0.49008
 C1784 C -0.02720 1.13779 0.47707
 C1785 C 0.04541 1.12387 0.44536
 C1786 C 0.06305 1.11026 0.44268
 C1787 C 0.06251 1.08974 0.45187
 C1788 C 0.04435 1.08271 0.46389
 C1789 C 0.00801 1.15116 0.44777
 C1790 C 0.00691 1.16768 0.43692
 C1791 C 0.00657 1.06723 0.48739
 C1792 C 0.00477 1.04865 0.49252
 H1793 H -0.02874 1.08136 0.50453
 H1794 H -0.05903 1.10564 0.50990
 H1795 H -0.05851 1.14171 0.49263
 H1796 H -0.02769 1.15376 0.46993
 H1797 H 0.04654 1.13966 0.43784
 H1798 H 0.07719 1.11564 0.43333
 H1799 H 0.07620 1.07918 0.44965
 H1800 H 0.04457 1.06655 0.47050
 C1801 C 0.79074 0.70735 0.83674
 C1802 C 0.79058 0.68476 0.83528
 C1803 C 0.79027 0.67261 0.85640
 C1804 C 0.79011 0.68319 0.87877
 C1805 C 0.79249 0.70566 0.88016
 C1806 C 0.79281 0.71779 0.85902
 C1807 C 0.79456 0.74030 0.86076
 C1808 C 0.79609 0.75053 0.88283
 C1809 C 0.79579 0.73864 0.90354
 C1810 C 0.79396 0.71645 0.90233
 C1811 C 0.78951 0.65004 0.85457
 C1812 C 0.78911 0.63978 0.83244
 C1813 C 0.78933 0.65169 0.81176
 C1814 C 0.79001 0.67395 0.81307
 C1815 C 0.78494 0.67133 0.89997
 C1816 C 0.77945 0.66151 0.91719
 C1817 C 0.78506 0.71963 0.81606
 C1818 C 0.77818 0.72938 0.79943
 H1819 H 0.79495 0.75014 0.84508
 H1820 H 0.79751 0.76776 0.88386
 H1821 H 0.79698 0.74666 0.92063
 H1822 H 0.79386 0.70783 0.91888
 H1823 H 0.78936 0.64013 0.87019
 H1824 H 0.78859 0.62249 0.83134
 H1825 H 0.78894 0.64364 0.79465
 H1826 H 0.79026 0.68261 0.79657
 C1827 C 0.29047 0.21007 0.33665
 C1828 C 0.29011 0.22047 0.35908
 C1829 C 0.28983 0.20817 0.38009
 C1830 C 0.28988 0.18558 0.37843
 C1831 C 0.29246 0.17527 0.35607
 C1832 C 0.29284 0.18761 0.33507
 C1833 C 0.29501 0.17704 0.31282
 C1834 C 0.29690 0.15485 0.31139
 C1835 C 0.29637 0.14274 0.33193
 C1836 C 0.29412 0.15276 0.35408
 C1837 C 0.28888 0.21887 0.40236
 C1838 C 0.28828 0.24114 0.40379
 C1839 C 0.28851 0.25318 0.38320
 C1840 C 0.28937 0.24304 0.36103
 C1841 C 0.28488 0.17310 0.39922
 C1842 C 0.27955 0.16289 0.41623
 C1843 C 0.28453 0.22189 0.31574
 C1844 C 0.27741 0.23126 0.29898
 H1845 H 0.29558 0.18587 0.29642
 H1846 H 0.29887 0.14700 0.29429
 H1847 H 0.29777 0.12550 0.33071
 H1848 H 0.29392 0.14273 0.36960
 H1849 H 0.28874 0.21015 0.41884
 H1850 H 0.28763 0.24909 0.42097
 H1851 H 0.28804 0.27046 0.38440
 H1852 H 0.28964 0.25301 0.34546
 C1853 C 0.71238 0.28962 0.33534
 C1854 C 0.71267 0.31221 0.33454
 C1855 C 0.71289 0.32435 0.35601
 C1856 C 0.71291 0.31376 0.37808
 C1857 C 0.71061 0.29128 0.37882
 C1858 C 0.71032 0.27915 0.35733
 C1859 C 0.70858 0.25664 0.35841
 C1860 C 0.70704 0.24640 0.38018
 C1861 C 0.70731 0.25826 0.40124
 C1862 C 0.70912 0.28046 0.40067
 C1863 C 0.71366 0.34692 0.35483
 C1864 C 0.71417 0.35719 0.33299
 C1865 C 0.71406 0.34528 0.31196
 C1866 C 0.71338 0.32303 0.31264
 C1867 C 0.71750 0.32568 0.39970
 C1868 C 0.72229 0.33558 0.41738
 C1869 C 0.71770 0.27732 0.31419
 C1870 C 0.72421 0.26750 0.29713
 H1871 H 0.70820 0.24680 0.34246
 H1872 H 0.70563 0.22916 0.38072
 H1873 H 0.70612 0.25023 0.41811
 H1874 H 0.70921 0.28905 0.41748
 H1875 H 0.71375 0.35683 0.37073
 H1876 H 0.71470 0.37447 0.33239
 H1877 H 0.71453 0.35333 0.29506
 H1878 H 0.71330 0.31438 0.29589
 C1879 C 0.21176 0.79413 0.83343
 C1880 C 0.21181 0.78304 0.85516
 C1881 C 0.21252 0.79465 0.87696
 C1882 C 0.21315 0.81726 0.87680
 C1883 C 0.21099 0.82833 0.85516
 C1884 C 0.21023 0.81669 0.83336
 C1885 C 0.20847 0.82800 0.81185
 C1886 C 0.20731 0.85027 0.81192
 C1887 C 0.20819 0.86169 0.83324
 C1888 C 0.21006 0.85093 0.85468
 C1889 C 0.21316 0.78325 0.89850
 C1890 C 0.21301 0.76096 0.89845
 C1891 C 0.21233 0.74959 0.87708
 C1892 C 0.21178 0.76042 0.85561
 C1893 C 0.21802 0.82897 0.89849
 C1894 C 0.22297 0.83865 0.91626
 C1895 C 0.21704 0.78270 0.81170
 C1896 C 0.22364 0.77335 0.79438
 H1897 H 0.20770 0.81974 0.79486
 H1898 H 0.20564 0.85871 0.79538
 H1899 H 0.20736 0.87898 0.83318
 H1900 H 0.21058 0.86046 0.87085
 H1901 H 0.21364 0.79143 0.91554
 H1902 H 0.21344 0.75247 0.91508
 H1903 H 0.21221 0.73228 0.87713
 H1904 H 0.21113 0.75094 0.83941
 C1905 C 0.28692 0.79096 0.16753
 C1906 C 0.28603 0.78059 0.14510
 C1907 C 0.28606 0.79290 0.12409
 C1908 C 0.28694 0.81547 0.12575
 C1909 C 0.28993 0.82566 0.14809
 C1910 C 0.29000 0.81332 0.16908
 C1911 C 0.29264 0.82378 0.19130
 C1912 C 0.29529 0.84588 0.19270
 C1913 C 0.29506 0.85800 0.17217
 C1914 C 0.29236 0.84809 0.15006
 C1915 C 0.28459 0.78226 0.10183
 C1916 C 0.28319 0.76003 0.10040
 C1917 C 0.28313 0.74799 0.12099
 C1918 C 0.28449 0.75807 0.14315
 C1919 C 0.28240 0.82814 0.10496
 C1920 C 0.27743 0.83848 0.08791
 C1921 C 0.28113 0.77927 0.18858
 C1922 C 0.27431 0.76990 0.20548
 H1923 H 0.29297 0.81495 0.20771
 H1924 H 0.29763 0.85363 0.20978
 H1925 H 0.29706 0.87517 0.17338
 H1926 H 0.29241 0.85813 0.13454
 H1927 H 0.28465 0.79097 0.08535
 H1928 H 0.28213 0.75213 0.08323
 H1929 H 0.28204 0.73074 0.11979
 H1930 H 0.28452 0.74807 0.15870
 C1931 C 0.78785 0.28980 0.66793
 C1932 C 0.79007 0.31226 0.66959
 C1933 C 0.78997 0.32462 0.64861
 C1934 C 0.78782 0.31436 0.62620
 C1935 C 0.78792 0.29176 0.62449
 C1936 C 0.78791 0.27943 0.64548
 C1937 C 0.78732 0.25687 0.64348
 C1938 C 0.78691 0.24677 0.62128
 C1939 C 0.78696 0.25884 0.60070
 C1940 C 0.78741 0.28110 0.60219
 C1941 C 0.79149 0.34713 0.65066
 C1942 C 0.79326 0.35712 0.67286
 C1943 C 0.79346 0.34499 0.69339
 C1944 C 0.79180 0.32279 0.69188
 C1945 C 0.78305 0.32687 0.60536
 C1946 C 0.77787 0.33709 0.58829
 C1947 C 0.78188 0.27793 0.68879
 C1948 C 0.77492 0.26851 0.70559
 H1949 H 0.78738 0.24686 0.65903
 H1950 H 0.78656 0.22948 0.62004
 H1951 H 0.78665 0.25092 0.58350
 H1952 H 0.78750 0.28985 0.58573
 H1953 H 0.79152 0.35718 0.63515
 H1954 H 0.79453 0.37435 0.67413
 H1955 H 0.79497 0.35282 0.71053
 H1956 H 0.79216 0.31395 0.70828
 C1957 C 0.21772 0.21037 0.66923
 C1958 C 0.21066 0.18893 0.66954
 C1959 C 0.21077 0.17656 0.64820
 C1960 C 0.21767 0.18590 0.62673
 C1961 C 0.22275 0.20792 0.62610
 C1962 C 0.22279 0.22020 0.64746
 C1963 C 0.22847 0.24207 0.64658
 C1964 C 0.23387 0.25155 0.62514
 C1965 C 0.23381 0.23954 0.60420
 C1966 C 0.22835 0.21795 0.60457
 C1967 C 0.20432 0.15493 0.64900
 C1968 C 0.19759 0.14589 0.67026
 C1969 C 0.19721 0.15810 0.69108
 C1970 C 0.20385 0.17936 0.69087
 C1971 C 0.22129 0.17270 0.60575
 C1972 C 0.22536 0.16219 0.58823
 C1973 C 0.22289 0.22133 0.69124
 C1974 C 0.22923 0.23036 0.70881
 H1975 H 0.22860 0.25208 0.66241
 H1976 H 0.23811 0.26831 0.62477
 H1977 H 0.23801 0.24697 0.58757
 H1978 H 0.22846 0.20928 0.58781
 H1979 H 0.20422 0.14489 0.63320
 H1980 H 0.19259 0.12934 0.67057
 H1981 H 0.19187 0.15104 0.70750
 H1982 H 0.20340 0.18826 0.70749
 C1983 C 0.71592 0.70346 0.17162
 C1984 C 0.71353 0.71400 0.14972
 C1985 C 0.71356 0.70195 0.12818
 C1986 C 0.71596 0.67945 0.12878
 C1987 C 0.71628 0.66879 0.15080
 C1988 C 0.71625 0.68087 0.17233
 C1989 C 0.71719 0.66998 0.19417
 C1990 C 0.71802 0.64772 0.19474
 C1991 C 0.71800 0.63588 0.17366
 C1992 C 0.71719 0.64621 0.15188
 C1993 C 0.71173 0.71284 0.10640
 C1994 C 0.70985 0.73505 0.10596
 C1995 C 0.70984 0.74685 0.12706
 C1996 C 0.71170 0.73653 0.14876
 C1997 C 0.72025 0.66760 0.10697
 C1998 C 0.72477 0.65794 0.08898
 C1999 C 0.72144 0.71570 0.19270
 C2000 C 0.72801 0.72555 0.20964
 H2001 H 0.71713 0.67858 0.21096
 H2002 H 0.71871 0.63961 0.21159
 H2003 H 0.71864 0.61859 0.17419
 H2004 H 0.71715 0.63636 0.13593
 H2005 H 0.71159 0.70431 0.08956
 H2006 H 0.70840 0.74314 0.08916
 H2007 H 0.70837 0.76410 0.12663
 H2008 H 0.71151 0.74632 0.16475
 C2009 C 0.22225 0.66128 0.23407
 C2010 C 0.20789 0.65580 0.21557
 C2011 C 0.19955 0.63474 0.21400
 C2012 C 0.20574 0.61929 0.23087
 C2013 C 0.22036 0.62472 0.24917
 C2014 C 0.22868 0.64580 0.25075
 C2015 C 0.24317 0.65094 0.26928
 C2016 C 0.24917 0.63570 0.28586
 C2017 C 0.24097 0.61510 0.28437
 C2018 C 0.22675 0.60957 0.26626
 C2019 C 0.18494 0.62968 0.19556
 C2020 C 0.17882 0.64501 0.17911
 C2021 C 0.18709 0.66558 0.18058
 C2022 C 0.20147 0.67101 0.19856
 C2023 C 0.19631 0.59816 0.23005
 C2024 C 0.18786 0.58088 0.22985
 C2025 C 0.22987 0.68301 0.23642
 C2026 C 0.23594 0.70112 0.23874
 H2027 H 0.24990 0.66679 0.27123
 H2028 H 0.26016 0.63994 0.30000
 H2029 H 0.24563 0.60333 0.29734
 H2030 H 0.22082 0.59333 0.26582
 H2031 H 0.17811 0.61388 0.19366
 H2032 H 0.16760 0.64088 0.16515
 H2033 H 0.18226 0.67745 0.16779
 H2034 H 0.20739 0.68726 0.19904
 C2035 C 0.72153 0.16039 0.73631
 C2036 C 0.69952 0.15689 0.74101
 C2037 C 0.69110 0.13586 0.73956
 C2038 C 0.70483 0.11843 0.73382
 C2039 C 0.72686 0.12194 0.72925
 C2040 C 0.73524 0.14302 0.73045
 C2041 C 0.75732 0.14618 0.72584
 C2042 C 0.77075 0.12897 0.72020
 C2043 C 0.76256 0.10834 0.71904
 C2044 C 0.74087 0.10477 0.72349
 C2045 C 0.66896 0.13279 0.74406
 C2046 C 0.65560 0.14998 0.74994
 C2047 C 0.66391 0.17052 0.75164
 C2048 C 0.68562 0.17401 0.74735
 C2049 C 0.69624 0.09693 0.73321
 C2050 C 0.68828 0.07942 0.73327
 C2051 C 0.72999 0.18188 0.73782
 C2052 C 0.73644 0.19991 0.73957
 H2053 H 0.76442 0.16194 0.72655
 H2054 H 0.78761 0.13166 0.71673
 H2055 H 0.77306 0.09503 0.71465
 H2056 H 0.73521 0.08845 0.72236
 H2057 H 0.66174 0.11710 0.74306
 H2058 H 0.63871 0.14734 0.75327
 H2059 H 0.65350 0.18384 0.75628
 H2060 H 0.69135 0.19027 0.74905
 C2061 C 0.77938 0.15907 0.26735
 C2062 C 0.80065 0.15563 0.25929
 C2063 C 0.80981 0.13486 0.26024
 C2064 C 0.79755 0.11763 0.26900
 C2065 C 0.77641 0.12116 0.27743
 C2066 C 0.76729 0.14199 0.27662
 C2067 C 0.74608 0.14517 0.28500
 C2068 C 0.73423 0.12822 0.29394
 C2069 C 0.74316 0.10783 0.29473
 C2070 C 0.76402 0.10424 0.28658
 C2071 C 0.83115 0.13179 0.25212
 C2072 C 0.84303 0.14877 0.24327
 C2073 C 0.83399 0.16907 0.24220
 C2074 C 0.81304 0.17254 0.25001
 C2075 C 0.80643 0.09621 0.26797
 C2076 C 0.81466 0.07887 0.26570
 C2077 C 0.76997 0.18016 0.26563
 C2078 C 0.76291 0.19794 0.26357
 H2079 H 0.73847 0.16075 0.28473
 H2080 H 0.71802 0.13092 0.30029
 H2081 H 0.73389 0.09471 0.30171
 H2082 H 0.77032 0.08813 0.28759
 H2083 H 0.83891 0.11630 0.25256
 H2084 H 0.85932 0.14613 0.23718
 H2085 H 0.84325 0.18222 0.23528
 H2086 H 0.80672 0.18862 0.24871
 C2087 C 0.27876 0.66503 0.76509
 C2088 C 0.30041 0.66143 0.75850
 C2089 C 0.30917 0.64049 0.75948
 C2090 C 0.29612 0.62325 0.76672
 C2091 C 0.27460 0.62693 0.77374
 C2092 C 0.26589 0.64793 0.77296
 C2093 C 0.24430 0.65128 0.77993
 C2094 C 0.23167 0.63432 0.78747
 C2095 C 0.24019 0.61375 0.78822
 C2096 C 0.26141 0.61001 0.78144
 C2097 C 0.33091 0.63726 0.75290
 C2098 C 0.34356 0.65426 0.74549
 C2099 C 0.33491 0.67472 0.74431
 C2100 C 0.31358 0.67834 0.75062
 C2101 C 0.30460 0.60167 0.76544
 C2102 C 0.31243 0.58416 0.76304
 C2103 C 0.26975 0.68628 0.76321
 C2104 C 0.26289 0.70413 0.76105
 H2105 H 0.23698 0.66700 0.77964
 H2106 H 0.21518 0.63714 0.79275
 H2107 H 0.23032 0.60063 0.79409
 H2108 H 0.26738 0.59376 0.78237
 H2109 H 0.33838 0.62163 0.75347
 H2110 H 0.36016 0.65151 0.74059
 H2111 H 0.34477 0.68788 0.73850
 H2112 H 0.30757 0.69453 0.74927
 C2113 C 0.28114 0.33870 0.74000
 C2114 C 0.26794 0.35492 0.73049
 C2115 C 0.27607 0.37596 0.72810
 C2116 C 0.29734 0.38057 0.73518
 C2117 C 0.31054 0.36430 0.74469
 C2118 C 0.30235 0.34332 0.74724
 C2119 C 0.31571 0.32736 0.75710
 C2120 C 0.33666 0.33195 0.76394
 C2121 C 0.34475 0.35245 0.76126
 C2122 C 0.33190 0.36851 0.75181
 C2123 C 0.26260 0.39198 0.71860
 C2124 C 0.24166 0.38731 0.71166
 C2125 C 0.23370 0.36671 0.71400
 C2126 C 0.24662 0.35063 0.72329
 C2127 C 0.30567 0.40203 0.73303
 C2128 C 0.31329 0.41963 0.73180
 C2129 C 0.27301 0.31721 0.74224
 C2130 C 0.26668 0.29922 0.74432
 H2131 H 0.31014 0.31117 0.75959
 H2132 H 0.34668 0.31951 0.77132
 H2133 H 0.36106 0.35594 0.76658
 H2134 H 0.33892 0.38422 0.75014
 H2135 H 0.26809 0.40824 0.71644
 H2136 H 0.23157 0.39975 0.70443
 H2137 H 0.21743 0.36316 0.70859
 H2138 H 0.23972 0.33485 0.72479
 C2139 C 0.78038 0.83466 0.23723
 C2140 C 0.76728 0.85106 0.22791
 C2141 C 0.77569 0.87197 0.22529
 C2142 C 0.79713 0.87627 0.23196
 C2143 C 0.81031 0.85978 0.24102
 C2144 C 0.80187 0.83892 0.24375
 C2145 C 0.81526 0.82271 0.25304
 C2146 C 0.83644 0.82694 0.25925
 C2147 C 0.84475 0.84734 0.25649
 C2148 C 0.83191 0.86364 0.24754
 C2149 C 0.76231 0.88817 0.21602
 C2150 C 0.74120 0.88379 0.20949
 C2151 C 0.73298 0.86332 0.21205
 C2152 C 0.74580 0.84707 0.22116
 C2153 C 0.80562 0.89771 0.23013
 C2154 C 0.81348 0.91523 0.22939
 C2155 C 0.77187 0.81339 0.24017
 C2156 C 0.76540 0.79552 0.24286
 H2157 H 0.80954 0.80658 0.25557
 H2158 H 0.84646 0.81431 0.26622
 H2159 H 0.86123 0.85057 0.26134
 H2160 H 0.83912 0.87924 0.24573
 H2161 H 0.76802 0.90432 0.21368
 H2162 H 0.73118 0.89636 0.20240
 H2163 H 0.71658 0.86000 0.20695
 H2164 H 0.73870 0.83139 0.22283
 C2165 C 0.72482 0.83851 0.77156
 C2166 C 0.70976 0.84464 0.78922
 C2167 C 0.70122 0.86574 0.78954
 C2168 C 0.70790 0.88056 0.77225
 C2169 C 0.72348 0.87459 0.75503
 C2170 C 0.73195 0.85348 0.75467
 C2171 C 0.74720 0.84772 0.73701
 C2172 C 0.75384 0.86241 0.72014
 C2173 C 0.74555 0.88307 0.72049
 C2174 C 0.73057 0.88919 0.73771
 C2175 C 0.68588 0.87142 0.80710
 C2176 C 0.67922 0.85668 0.82392
 C2177 C 0.68765 0.83606 0.82366
 C2178 C 0.70276 0.83002 0.80655
 C2179 C 0.69756 0.90132 0.77088
 C2180 C 0.68843 0.91816 0.76848
 C2181 C 0.73229 0.81660 0.76999
 C2182 C 0.73836 0.79840 0.76788
 H2183 H 0.75407 0.83181 0.73596
 H2184 H 0.76542 0.85770 0.70669
 H2185 H 0.75073 0.89442 0.70732
 H2186 H 0.72461 0.90546 0.73726
 H2187 H 0.67893 0.88730 0.80804
 H2188 H 0.66744 0.86127 0.83721
 H2189 H 0.68238 0.82465 0.83672
 H2190 H 0.70880 0.81378 0.80699
 C2191 C 0.21961 0.33805 0.26997
 C2192 C 0.19758 0.34071 0.26471
 C2193 C 0.18826 0.36146 0.26543
 C2194 C 0.20114 0.37944 0.27099
 C2195 C 0.22306 0.37671 0.27672
 C2196 C 0.23233 0.35592 0.27626
 C2197 C 0.25432 0.35354 0.28191
 C2198 C 0.26680 0.37125 0.28786
 C2199 C 0.25773 0.39161 0.28829
 C2200 C 0.23612 0.39440 0.28279
 C2201 C 0.16614 0.36372 0.26023
 C2202 C 0.15365 0.34599 0.25441
 C2203 C 0.16284 0.32572 0.25342
 C2204 C 0.18456 0.32304 0.25838
 C2205 C 0.19205 0.40073 0.26918
 C2206 C 0.18388 0.41800 0.26638
 C2207 C 0.22917 0.31695 0.26827
 C2208 C 0.23642 0.29918 0.26623
 H2209 H 0.26206 0.33802 0.28181
 H2210 H 0.28359 0.36916 0.29216
 H2211 H 0.26750 0.40531 0.29293
 H2212 H 0.22975 0.41053 0.28342
 H2213 H 0.15826 0.37917 0.26070
 H2214 H 0.13676 0.34801 0.25056
 H2215 H 0.15311 0.31199 0.24881
 H2216 H 0.19098 0.30697 0.25722
 C2217 C 0.16251 0.24295 0.77154
 C2218 C 0.15179 0.26230 0.77750
 C2219 C 0.13081 0.26180 0.78742
 C2220 C 0.12065 0.24194 0.79140
 C2221 C 0.13104 0.22262 0.78455
 C2222 C 0.15200 0.22314 0.77449
 C2223 C 0.16207 0.20366 0.76776
 C2224 C 0.15174 0.18418 0.77090
 C2225 C 0.13134 0.18364 0.78093
 C2226 C 0.12103 0.20260 0.78771
 C2227 C 0.12053 0.28138 0.79341
 C2228 C 0.13067 0.30087 0.78971
 C2229 C 0.15119 0.30136 0.78004
 C2230 C 0.16171 0.28235 0.77398
 C2231 C 0.09991 0.24155 0.80332
 C2232 C 0.08294 0.24190 0.81373
 C2233 C 0.18481 0.24355 0.76405
 C2234 C 0.20355 0.24504 0.75904
 H2235 H 0.17794 0.20331 0.75991
 H2236 H 0.15964 0.16942 0.76560
 H2237 H 0.12344 0.16845 0.78342
 H2238 H 0.10513 0.20140 0.79533
 H2239 H 0.10454 0.28186 0.80094
 H2240 H 0.12256 0.31569 0.79438
 H2241 H 0.15901 0.31654 0.77720
 H2242 H 0.17762 0.28358 0.76641
 C2243 C 0.66342 0.73777 0.27749
 C2244 C 0.66065 0.74154 0.30217
 C2245 C 0.63969 0.74189 0.31219
 C2246 C 0.62158 0.73840 0.29751
 C2247 C 0.62441 0.73400 0.27295
 C2248 C 0.64540 0.73370 0.26291
 C2249 C 0.64784 0.72939 0.23833
 C2250 C 0.63004 0.72536 0.22404
 C2251 C 0.60953 0.72564 0.23383
 C2252 C 0.60665 0.72993 0.25799
 C2253 C 0.63737 0.74585 0.33689
 C2254 C 0.65522 0.74934 0.35127
 C2255 C 0.67570 0.74899 0.34149
 C2256 C 0.67849 0.74515 0.31725
 C2257 C 0.60015 0.73963 0.30781
 C2258 C 0.58275 0.74089 0.31723
 C2259 C 0.68482 0.73900 0.26730
 C2260 C 0.70307 0.74088 0.26053
 H2261 H 0.66350 0.72893 0.22998
 H2262 H 0.63218 0.72200 0.20528
 H2263 H 0.59577 0.72250 0.22264
 H2264 H 0.59041 0.72996 0.26481
 H2265 H 0.62179 0.74627 0.34538
 H2266 H 0.65314 0.75233 0.37012
 H2267 H 0.68952 0.75169 0.35273
 H2268 H 0.69477 0.74499 0.31054
 C2269 C 0.65950 0.25778 0.23142
 C2270 C 0.65476 0.27433 0.21529
 C2271 C 0.63403 0.27567 0.20484
 C2272 C 0.61827 0.26018 0.21017
 C2273 C 0.62275 0.24415 0.22704
 C2274 C 0.64338 0.24300 0.23774
 C2275 C 0.64751 0.22673 0.25437
 C2276 C 0.63171 0.21201 0.26030
 C2277 C 0.61156 0.21312 0.24984
 C2278 C 0.60705 0.22897 0.23337
 C2279 C 0.62967 0.29248 0.18895
 C2280 C 0.64532 0.30751 0.18349
 C2281 C 0.66565 0.30602 0.19344
 C2282 C 0.67045 0.28955 0.20901
 C2283 C 0.59800 0.25997 0.19730
 C2284 C 0.58147 0.25940 0.18610
 C2285 C 0.68129 0.25510 0.24015
 C2286 C 0.69968 0.25249 0.24616
 H2287 H 0.66293 0.22525 0.26301
 H2288 H 0.63513 0.19968 0.27308
 H2289 H 0.59935 0.20165 0.25451
 H2290 H 0.59112 0.22923 0.22577
 H2291 H 0.61410 0.29425 0.18071
 H2292 H 0.64167 0.32033 0.17139
 H2293 H 0.67779 0.31768 0.18908
 H2294 H 0.68654 0.28899 0.21617
 C2295 C 0.16030 0.76248 0.72548
 C2296 C 0.15823 0.76719 0.70105
 C2297 C 0.13761 0.76726 0.69025
 C2298 C 0.11916 0.76237 0.70385
 C2299 C 0.12117 0.75841 0.72847
 C2300 C 0.14179 0.75851 0.73932
 C2301 C 0.14340 0.75437 0.76388
 C2302 C 0.12515 0.75027 0.77741
 C2303 C 0.10501 0.75015 0.76682
 C2304 C 0.10295 0.75414 0.74263
 C2305 C 0.13600 0.77206 0.66581
 C2306 C 0.15420 0.77661 0.65241
 C2307 C 0.17436 0.77637 0.66291
 C2308 C 0.17645 0.77167 0.68691
 C2309 C 0.09837 0.76062 0.69222
 C2310 C 0.08148 0.75892 0.68185
 C2311 C 0.18160 0.76052 0.73577
 C2312 C 0.19977 0.75832 0.74271
 H2313 H 0.15873 0.75435 0.77288
 H2314 H 0.12665 0.74717 0.79620
 H2315 H 0.09090 0.74695 0.77742
 H2316 H 0.08695 0.75392 0.73519
 H2317 H 0.12068 0.77244 0.65682
 H2318 H 0.15266 0.78029 0.63376
 H2319 H 0.18845 0.77989 0.65242
 H2320 H 0.19248 0.77177 0.69426
 C2321 C 0.84157 0.74092 0.73173
 C2322 C 0.84663 0.72483 0.71468
 C2323 C 0.86713 0.72454 0.70350
 C2324 C 0.88234 0.74062 0.70903
 C2325 C 0.87756 0.75624 0.72674
 C2326 C 0.85716 0.75634 0.73816
 C2327 C 0.85273 0.77221 0.75565
 C2328 C 0.86800 0.78755 0.76171
 C2329 C 0.88791 0.78746 0.75054
 C2330 C 0.89272 0.77204 0.73323
 C2331 C 0.87183 0.70816 0.68668
 C2332 C 0.85671 0.69255 0.68103
 C2333 C 0.83659 0.69302 0.69171
 C2334 C 0.83147 0.70903 0.70821
 C2335 C 0.90238 0.74173 0.69572
 C2336 C 0.91876 0.74288 0.68425
 C2337 C 0.81990 0.74256 0.74128
 C2338 C 0.80157 0.74448 0.74797
 H2339 H 0.83747 0.77289 0.76486
 H2340 H 0.86435 0.79956 0.77514
 H2341 H 0.89971 0.79941 0.75531
 H2342 H 0.90845 0.77259 0.72508
 H2343 H 0.88725 0.70718 0.67784
 H2344 H 0.86061 0.68008 0.66820
 H2345 H 0.82486 0.68092 0.68718
 H2346 H 0.81555 0.70880 0.71591
 C2347 C 0.33963 0.24162 0.22922
 C2348 C 0.35778 0.24909 0.24184
 C2349 C 0.37825 0.24935 0.23057
 C2350 C 0.38048 0.24201 0.20678
 C2351 C 0.36247 0.23365 0.19454
 C2352 C 0.34198 0.23361 0.20571
 C2353 C 0.32414 0.22565 0.19286
 C2354 C 0.32653 0.21762 0.16982
 C2355 C 0.34659 0.21747 0.15898
 C2356 C 0.36439 0.22544 0.17108
 C2357 C 0.39609 0.25716 0.24347
 C2358 C 0.39382 0.26443 0.26685
 C2359 C 0.37383 0.26413 0.27786
 C2360 C 0.35595 0.25659 0.26557
 C2361 C 0.40103 0.24371 0.19456
 C2362 C 0.41780 0.24520 0.18390
 C2363 C 0.31831 0.24340 0.23965
 C2364 C 0.30015 0.24541 0.24684
 H2365 H 0.30821 0.22537 0.20052
 H2366 H 0.31275 0.21145 0.16033
 H2367 H 0.34837 0.21119 0.14108
 H2368 H 0.37965 0.22501 0.16187
 H2369 H 0.41196 0.25766 0.23567
 H2370 H 0.40764 0.27031 0.27648
 H2371 H 0.37216 0.26977 0.29603
 H2372 H 0.34073 0.25661 0.27487
 C2373 C 0.33820 0.76059 0.27297
 C2374 C 0.34049 0.76570 0.29741
 C2375 C 0.36123 0.76613 0.30787
 C2376 C 0.37958 0.76120 0.29391
 C2377 C 0.37734 0.75687 0.26929
 C2378 C 0.35659 0.75662 0.25878
 C2379 C 0.35474 0.75214 0.23419
 C2380 C 0.37289 0.74803 0.22033
 C2381 C 0.39316 0.74824 0.23059
 C2382 C 0.39546 0.75259 0.25480
 C2383 C 0.36308 0.77134 0.33233
 C2384 C 0.34498 0.77594 0.34606
 C2385 C 0.32470 0.77539 0.33587
 C2386 C 0.32237 0.77028 0.31186
 C2387 C 0.40050 0.75970 0.30523
 C2388 C 0.41744 0.75818 0.31547
 C2389 C 0.31683 0.75823 0.26304
 C2390 C 0.29861 0.75577 0.25642
 H2391 H 0.33929 0.75185 0.22544
 H2392 H 0.37120 0.74466 0.20152
 H2393 H 0.40720 0.74503 0.21974
 H2394 H 0.41155 0.75263 0.26199
 H2395 H 0.37850 0.77199 0.34108
 H2396 H 0.34670 0.77994 0.36472
 H2397 H 0.31068 0.77896 0.34661
 H2398 H 0.30625 0.77015 0.30477
 C2399 C 0.83892 0.25956 0.77218
 C2400 C 0.84184 0.26780 0.79549
 C2401 C 0.86268 0.26815 0.80572
 C2402 C 0.88047 0.26009 0.79266
 C2403 C 0.87767 0.25272 0.76898
 C2404 C 0.85683 0.25249 0.75870
 C2405 C 0.85440 0.24492 0.73509
 C2406 C 0.87207 0.23777 0.72196
 C2407 C 0.89243 0.23796 0.73200
 C2408 C 0.89530 0.24531 0.75526
 C2409 C 0.86517 0.27646 0.82905
 C2410 C 0.84760 0.28424 0.84189
 C2411 C 0.82722 0.28385 0.83192
 C2412 C 0.82427 0.27569 0.80903
 C2413 C 0.90134 0.25850 0.80407
 C2414 C 0.91826 0.25696 0.81434
 C2415 C 0.81733 0.25718 0.76287
 C2416 C 0.79900 0.25477 0.75661
 H2417 H 0.83887 0.24453 0.72653
 H2418 H 0.86994 0.23206 0.70389
 H2419 H 0.90609 0.23240 0.72172
 H2420 H 0.91144 0.24522 0.76230
 H2421 H 0.88070 0.27715 0.83757
 H2422 H 0.84981 0.29059 0.85969
 H2423 H 0.81362 0.28990 0.84197
 H2424 H 0.80811 0.27581 0.80203
 C2425 C 0.54523 0.96761 0.57532
 C2426 C 0.56784 0.96935 0.57562
 C2427 C 0.57893 0.96948 0.59761
 C2428 C 0.56723 0.96820 0.61913
 C2429 C 0.54483 0.96469 0.61870
 C2430 C 0.53378 0.96433 0.59666
 C2431 C 0.51131 0.96126 0.59658
 C2432 C 0.50006 0.95854 0.61775
 C2433 C 0.51087 0.95891 0.63933
 C2434 C 0.53300 0.96199 0.63991
 C2435 C 0.60154 0.97147 0.59753
 C2436 C 0.61286 0.97328 0.57626
 C2437 C 0.60196 0.97338 0.55473
 C2438 C 0.57969 0.97159 0.55435
 C2439 C 0.57794 0.97252 0.64150
 C2440 C 0.58708 0.97697 0.65972
 C2441 C 0.53367 0.97250 0.55380
 C2442 C 0.52438 0.97867 0.53649
 H2443 H 0.50228 0.96078 0.58018
 H2444 H 0.48287 0.95615 0.61739
 H2445 H 0.50205 0.95680 0.65572
 H2446 H 0.54076 0.96209 0.65710
 H2447 H 0.61069 0.97151 0.61385
 H2448 H 0.63016 0.97470 0.57649
 H2449 H 0.61079 0.97490 0.53825
 H2450 H 0.57186 0.97191 0.53725
 C2451 C 0.04476 0.46487 1.07245
 C2452 C 0.03318 0.46434 1.09406
 C2453 C 0.04435 0.46534 1.11599
 C2454 C 0.06700 0.46682 1.11606
 C2455 C 0.07862 0.46520 1.09447
 C2456 C 0.06742 0.46420 1.07256
 C2457 C 0.07925 0.46319 1.05110
 C2458 C 0.10161 0.46305 1.05130
 C2459 C 0.11261 0.46402 1.07276
 C2460 C 0.10132 0.46514 1.09417
 C2461 C 0.03244 0.46544 1.13741
 C2462 C 0.01010 0.46449 1.13713
 C2463 C -0.00083 0.46352 1.11564
 C2464 C 0.01050 0.46349 1.09428
 C2465 C 0.07809 0.47199 1.13799
 C2466 C 0.08723 0.47711 1.15600
 C2467 C 0.03360 0.47007 1.05078
 C2468 C 0.02450 0.47669 1.03356
 H2469 H 0.07131 0.46231 1.03404
 H2470 H 0.11045 0.46221 1.03474
 H2471 H 0.12998 0.46392 1.07283
 H2472 H 0.11053 0.46582 1.11043
 H2473 H 0.04027 0.46611 1.15454
 H2474 H 0.00123 0.46453 1.15368
 H2475 H -0.01818 0.46279 1.11552
 H2476 H 0.00137 0.46260 1.07797
 C2477 C -0.04563 0.03479 1.07293
 C2478 C -0.06822 0.03304 1.07338
 C2479 C -0.07907 0.03131 1.09546
 C2480 C -0.06716 0.03140 1.11686
 C2481 C -0.04482 0.03524 1.11644
 C2482 C -0.03401 0.03699 1.09435
 C2483 C -0.01157 0.04025 1.09420
 C2484 C -0.00011 0.04181 1.11537
 C2485 C -0.01069 0.04008 1.13704
 C2486 C -0.03279 0.03680 1.13767
 C2487 C -0.10163 0.02892 1.09551
 C2488 C -0.11314 0.02834 1.07430
 C2489 C -0.10250 0.03003 1.05267
 C2490 C -0.08027 0.03230 1.05211
 C2491 C -0.07755 0.02567 1.13891
 C2492 C -0.08636 0.02017 1.15687
 C2493 C -0.03418 0.03006 1.05115
 C2494 C -0.02476 0.02364 1.03384
 H2495 H -0.00274 0.04180 1.07773
 H2496 H 0.01705 0.04437 1.11496
 H2497 H -0.00172 0.04128 1.15344
 H2498 H -0.04036 0.03560 1.15492
 H2499 H -0.11059 0.02761 1.11192
 H2500 H -0.13041 0.02657 1.07465
 H2501 H -0.11152 0.02962 1.03627
 H2502 H -0.07263 0.03368 1.03491
 C2503 C 0.45516 0.53620 0.57165
 C2504 C 0.43248 0.53610 0.57166
 C2505 C 0.42116 0.53556 0.59354
 C2506 C 0.43269 0.53501 0.61516
 C2507 C 0.45526 0.53731 0.61516
 C2508 C 0.46655 0.53794 0.59326
 C2509 C 0.48917 0.53962 0.59355
 C2510 C 0.50033 0.54078 0.61495
 C2511 C 0.48927 0.54018 0.63642
 C2512 C 0.46698 0.53842 0.63662
 C2513 C 0.39848 0.53495 0.59316
 C2514 C 0.38731 0.53496 0.57171
 C2515 C 0.39843 0.53539 0.55028
 C2516 C 0.42078 0.53585 0.55016
 C2517 C 0.42165 0.52987 0.63701
 C2518 C 0.41250 0.52469 0.65487
 C2519 C 0.46662 0.53068 0.55008
 C2520 C 0.47592 0.52386 0.53286
 H2521 H 0.49839 0.54025 0.57726
 H2522 H 0.51764 0.54215 0.61489
 H2523 H 0.49801 0.54108 0.65299
 H2524 H 0.45903 0.53807 0.65372
 H2525 H 0.38918 0.53463 0.60941
 H2526 H 0.36995 0.53459 0.57173
 H2527 H 0.38971 0.53533 0.53366
 H2528 H 0.42882 0.53615 0.53313
 C2529 C 0.45143 0.48013 -0.07948
 C2530 C 0.45312 0.49893 -0.09319
 C2531 C 0.44268 0.50009 -0.11551
 C2532 C 0.43061 0.48248 -0.12401
 C2533 C 0.42894 0.46369 -0.11033
 C2534 C 0.43938 0.46254 -0.08794
 C2535 C 0.43741 0.44372 -0.07447
 C2536 C 0.42546 0.42645 -0.08291
 C2537 C 0.41527 0.42754 -0.10482
 C2538 C 0.41693 0.44592 -0.11845
 C2539 C 0.44452 0.51906 -0.12885
 C2540 C 0.45636 0.53639 -0.12038
 C2541 C 0.46662 0.53526 -0.09856
 C2542 C 0.46505 0.51684 -0.08505
 C2543 C 0.41973 0.48404 -0.14666
 C2544 C 0.41082 0.48621 -0.16543
 C2545 C 0.46198 0.47957 -0.05661
 C2546 C 0.47142 0.48215 -0.03820
 H2547 H 0.44507 0.44220 -0.05733
 H2548 H 0.42410 0.41215 -0.07240
 H2549 H 0.40602 0.41407 -0.11129
 H2550 H 0.40873 0.44605 -0.13538
 H2551 H 0.43686 0.52075 -0.14595
 H2552 H 0.45759 0.55075 -0.13081
 H2553 H 0.47585 0.54873 -0.09206
 H2554 H 0.47333 0.51688 -0.06821
 C2555 C -0.04446 0.96669 0.41865
 C2556 C -0.03257 0.96871 0.39738
 C2557 C -0.04342 0.96983 0.37529
 C2558 C -0.06610 0.96891 0.37467
 C2559 C -0.07785 0.96510 0.39576
 C2560 C -0.06693 0.96383 0.41783
 C2561 C -0.07888 0.96001 0.43872
 C2562 C -0.10106 0.95739 0.43779
 C2563 C -0.11182 0.95899 0.41627
 C2564 C -0.10042 0.96284 0.39542
 C2565 C -0.03123 0.97228 0.35427
 C2566 C -0.00891 0.97352 0.35509
 C2567 C 0.00171 0.97243 0.37673
 C2568 C -0.00990 0.97010 0.39770
 C2569 C -0.07729 0.97292 0.35259
 C2570 C -0.08642 0.97668 0.33426
 C2571 C -0.03401 0.97099 0.44113
 C2572 C -0.02502 0.97680 0.45894
 H2573 H -0.07116 0.95873 0.45587
 H2574 H -0.10997 0.95418 0.45386
 H2575 H -0.12907 0.95716 0.41570
 H2576 H -0.10944 0.96382 0.37906
 H2577 H -0.03877 0.97316 0.33701
 H2578 H 0.00018 0.97532 0.33884
 H2579 H 0.01904 0.97337 0.37727
 H2580 H -0.00095 0.96918 0.41411
 C2581 C 0.04142 0.53261 0.41670
 C2582 C 0.06411 0.53295 0.41659
 C2583 C 0.07541 0.53220 0.39465
 C2584 C 0.06389 0.53102 0.37302
 C2585 C 0.04121 0.53242 0.37314
 C2586 C 0.02994 0.53324 0.39508
 C2587 C 0.00725 0.53415 0.39485
 C2588 C -0.00399 0.53434 0.37348
 C2589 C 0.00704 0.53356 0.35199
 C2590 C 0.02939 0.53257 0.35171
 C2591 C 0.09811 0.53219 0.39497
 C2592 C 0.10931 0.53294 0.41638
 C2593 C 0.09823 0.53357 0.43785
 C2594 C 0.07588 0.53350 0.43804
 C2595 C 0.07519 0.52681 0.35089
 C2596 C 0.08453 0.52272 0.33262
 C2597 C 0.03009 0.52832 0.43858
 C2598 C 0.02090 0.52267 0.45620
 H2599 H -0.00198 0.53489 0.41114
 H2600 H -0.02134 0.53511 0.37360
 H2601 H -0.00176 0.53371 0.33544
 H2602 H 0.03728 0.53204 0.33458
 H2603 H 0.10740 0.53174 0.37871
 H2604 H 0.12668 0.53299 0.41631
 H2605 H 0.10700 0.53409 0.45442
 H2606 H 0.06790 0.53402 0.45511
 C2607 C 0.54215 0.03236 -0.07967
 C2608 C 0.56425 0.03730 -0.08008
 C2609 C 0.57586 0.03580 -0.10179
 C2610 C 0.56518 0.02953 -0.12292
 C2611 C 0.54271 0.02631 -0.12280
 C2612 C 0.53116 0.02774 -0.10108
 C2613 C 0.50877 0.02400 -0.10124
 C2614 C 0.49809 0.01905 -0.12231
 C2615 C 0.50940 0.01767 -0.14358
 C2616 C 0.53146 0.02121 -0.14393
 C2617 C 0.59809 0.04029 -0.10170
 C2618 C 0.60848 0.04634 -0.08077
 C2619 C 0.59705 0.04799 -0.05958
 C2620 C 0.57520 0.04337 -0.05909
 C2621 C 0.57734 0.02515 -0.14445
 C2622 C 0.58725 0.02096 -0.16232
 C2623 C 0.53142 0.02876 -0.05726
 C2624 C 0.52237 0.02349 -0.03941
 H2625 H 0.49928 0.02502 -0.08513
 H2626 H 0.48096 0.01630 -0.12212
 H2627 H 0.50104 0.01383 -0.15991
 H2628 H 0.53956 0.02001 -0.16092
 H2629 H 0.60759 0.03932 -0.11778
 H2630 H 0.62548 0.04980 -0.08100
 H2631 H 0.60519 0.05276 -0.04341
 H2632 H 0.56694 0.04478 -0.04220
 C2633 C 0.58256 0.53197 -0.01134
 C2634 C 0.59741 0.52307 -0.02776
 C2635 C 0.61883 0.53076 -0.02833
 C2636 C 0.62523 0.54717 -0.01235
 C2637 C 0.61036 0.55599 0.00416
 C2638 C 0.58887 0.54857 0.00443
 C2639 C 0.57416 0.55791 0.02077
 C2640 C 0.58068 0.57359 0.03694
 C2641 C 0.60177 0.58069 0.03688
 C2642 C 0.61648 0.57214 0.02063
 C2643 C 0.63342 0.52169 -0.04494
 C2644 C 0.62702 0.50544 -0.06052
 C2645 C 0.60608 0.49790 -0.05993
 C2646 C 0.59136 0.50656 -0.04376
 C2647 C 0.64694 0.55534 -0.01303
 C2648 C 0.66467 0.56292 -0.01302
 C2649 C 0.56100 0.52360 -0.00984
 C2650 C 0.54304 0.51703 -0.00740
 H2651 H 0.55755 0.55303 0.02143
 H2652 H 0.56929 0.58026 0.04957
 H2653 H 0.60676 0.59293 0.04944
 H2654 H 0.63269 0.57825 0.02124
 H2655 H 0.64989 0.52701 -0.04602
 H2656 H 0.63839 0.49867 -0.07312
 H2657 H 0.60119 0.48528 -0.07207
 H2658 H 0.57523 0.50022 -0.04398
 C2659 C 0.08372 1.03119 0.48725
 C2660 C 0.10017 1.02005 0.47488
 C2661 C 0.12119 1.02870 0.47403
 C2662 C 0.12557 1.04845 0.48554
 C2663 C 0.10902 1.05972 0.49770
 C2664 C 0.08804 1.05104 0.49859
 C2665 C 0.07180 1.06246 0.51108
 C2666 C 0.07615 1.08195 0.52223
 C2667 C 0.09666 1.09050 0.52127
 C2668 C 0.11298 1.07958 0.50920
 C2669 C 0.13743 1.01725 0.46164
 C2670 C 0.13301 0.99779 0.45039
 C2671 C 0.11244 0.98932 0.45122
 C2672 C 0.09614 1.00025 0.46331
 C2673 C 0.14709 1.05711 0.48527
 C2674 C 0.16475 1.06485 0.48564
 C2675 C 0.06247 1.02211 0.48891
 C2676 C 0.04467 1.01508 0.49114
 H2677 H 0.05558 1.05646 0.51240
 H2678 H 0.06352 1.09046 0.53166
 H2679 H 0.09998 1.10567 0.52996
 H2680 H 0.12868 1.08689 0.50898
 H2681 H 0.15368 1.02322 0.46051
 H2682 H 0.14562 0.98924 0.44097
 H2683 H 0.10908 0.97421 0.44244
 H2684 H 0.08038 0.99304 0.46347
 C2685 C 0.08405 -0.03114 1.00687
 C2686 C 0.08768 -0.05342 1.00462
 C2687 C 0.10882 -0.06170 1.00675
 C2688 C 0.12616 -0.04761 1.01108
 C2689 C 0.12251 -0.02533 1.01329
 C2690 C 0.10136 -0.01705 1.01115
 C2691 C 0.09806 0.00529 1.01331
 C2692 C 0.11520 0.01907 1.01747
 C2693 C 0.13590 0.01097 1.01957
 C2694 C 0.13962 -0.01097 1.01752
 C2695 C 0.11210 -0.08404 1.00436
 C2696 C 0.09498 -0.09778 0.99997
 C2697 C 0.07429 -0.08967 0.99787
 C2698 C 0.07058 -0.06776 1.00014
 C2699 C 0.14775 -0.05612 1.01276
 C2700 C 0.16544 -0.06386 1.01366
 C2701 C 0.06254 -0.02276 1.00436
 C2702 C 0.04454 -0.01623 1.00187
 H2703 H 0.08224 0.01234 1.01180
 H2704 H 0.11240 0.03612 1.01906
 H2705 H 0.14917 0.02173 1.02280
 H2706 H 0.15600 -0.01653 1.01928
 H2707 H 0.12790 -0.09114 1.00584
 H2708 H 0.09778 -0.11482 0.99819
 H2709 H 0.06107 -0.10042 0.99445
 H2710 H 0.05420 -0.06222 0.99829
 C2711 C 0.58424 0.46827 0.50661
 C2712 C 0.58805 0.44633 0.50170
 C2713 C 0.60898 0.43770 0.50449
 C2714 C 0.62602 0.45116 0.51180
 C2715 C 0.62220 0.47310 0.51671
 C2716 C 0.60120 0.48168 0.51415
 C2717 C 0.59772 0.50366 0.51914
 C2718 C 0.61453 0.51679 0.52644
 C2719 C 0.63508 0.50840 0.52893
 C2720 C 0.63897 0.48681 0.52413
 C2721 C 0.61236 0.41565 0.49972
 C2722 C 0.59555 0.40256 0.49232
 C2723 C 0.57512 0.41107 0.48933
 C2724 C 0.57134 0.43270 0.49384
 C2725 C 0.64754 0.44245 0.51361
 C2726 C 0.66518 0.43458 0.51449
 C2727 C 0.56288 0.47698 0.50369
 C2728 C 0.54500 0.48375 0.50090
 H2729 H 0.58200 0.51091 0.51744
 H2730 H 0.61158 0.53357 0.53020
 H2731 H 0.64808 0.51867 0.53461
 H2732 H 0.65521 0.48100 0.52634
 H2733 H 0.62799 0.40829 0.50170
 H2734 H 0.59842 0.38573 0.48881
 H2735 H 0.56211 0.40086 0.48352
 H2736 H 0.55519 0.43858 0.49113
 C2737 C -0.08743 0.47020 0.48912
 C2738 C -0.10497 0.48351 0.48314
 C2739 C -0.12607 0.47502 0.48278
 C2740 C -0.12946 0.45328 0.48833
 C2741 C -0.11185 0.43990 0.49398
 C2742 C -0.09079 0.44844 0.49457
 C2743 C -0.07349 0.43494 0.50094
 C2744 C -0.07685 0.41348 0.50606
 C2745 C -0.09743 0.40505 0.50518
 C2746 C -0.11480 0.41804 0.49931
 C2747 C -0.14341 0.48865 0.47693
 C2748 C -0.13996 0.51006 0.47156
 C2749 C -0.11930 0.51835 0.47190
 C2750 C -0.10194 0.50530 0.47762
 C2751 C -0.15106 0.44479 0.48897
 C2752 C -0.16881 0.43733 0.49000
 C2753 C -0.06598 0.47892 0.49025
 C2754 C -0.04799 0.48565 0.49181
 H2755 H -0.05721 0.44079 0.50205
 H2756 H -0.06340 0.40336 0.51071
 H2757 H -0.09997 0.38836 0.50916
 H2758 H -0.13051 0.41076 0.49897
 H2759 H -0.15976 0.48291 0.47640
 H2760 H -0.15340 0.52026 0.46710
 H2761 H -0.11671 0.53499 0.46772
 H2762 H -0.08616 0.51247 0.47766
 C2763 C 0.41282 -0.02729 -0.00849
 C2764 C 0.40944 -0.04925 -0.00409
 C2765 C 0.38838 -0.05775 -0.00509
 C2766 C 0.37078 -0.04412 -0.01004
 C2767 C 0.37417 -0.02217 -0.01450
 C2768 C 0.39529 -0.01373 -0.01376
 C2769 C 0.39833 0.00828 -0.01816
 C2770 C 0.38097 0.02158 -0.02316
 C2771 C 0.36030 0.01333 -0.02388
 C2772 C 0.35685 -0.00829 -0.01961
 C2773 C 0.38541 -0.07980 -0.00083
 C2774 C 0.40277 -0.09304 0.00441
 C2775 C 0.42335 -0.08466 0.00571
 C2776 C 0.42672 -0.06302 0.00164
 C2777 C 0.34919 -0.05262 -0.00975
 C2778 C 0.33145 -0.06013 -0.00899
 C2779 C 0.43429 -0.01868 -0.00699
 C2780 C 0.45233 -0.01218 -0.00511
 H2781 H 0.41412 0.01542 -0.01779
 H2782 H 0.38357 0.03839 -0.02648
 H2783 H 0.34687 0.02373 -0.02777
 H2784 H 0.34049 -0.01399 -0.02039
 H2785 H 0.36969 -0.08706 -0.00152
 H2786 H 0.40022 -0.10988 0.00758
 H2787 H 0.43679 -0.09496 0.00989
 H2788 H 0.44300 -0.05722 0.00305
 C2789 C 0.41545 1.03108 0.50648
 C2790 C 0.40046 1.02438 0.48910
 C2791 C 0.37896 1.03193 0.49025
 C2792 C 0.37259 1.04602 0.50886
 C2793 C 0.38760 1.05270 0.52626
 C2794 C 0.40911 1.04516 0.52509
 C2795 C 0.42387 1.05204 0.54263
 C2796 C 0.41757 1.06610 0.56076
 C2797 C 0.39655 1.07357 0.56186
 C2798 C 0.38165 1.06697 0.54488
 C2799 C 0.36433 1.02529 0.47245
 C2800 C 0.37078 1.01161 0.45404
 C2801 C 0.39181 1.00417 0.45295
 C2802 C 0.40654 1.01038 0.47026
 C2803 C 0.35078 1.05415 0.50964
 C2804 C 0.33278 1.06123 0.50975
 C2805 C 0.43746 1.02378 0.50487
 C2806 C 0.45568 1.01765 0.50293
 H2807 H 0.44042 1.04674 0.54245
 H2808 H 0.42909 1.07130 0.57396
 H2809 H 0.39175 1.08452 0.57594
 H2810 H 0.36548 1.07318 0.54650
 H2811 H 0.34780 1.03064 0.47252
 H2812 H 0.35940 1.00676 0.44053
 H2813 H 0.39677 0.99359 0.43858
 H2814 H 0.42274 1.00425 0.46857
 C2815 C -0.08493 0.52891 1.00554
 C2816 C -0.08895 0.55110 1.00819
 C2817 C -0.11041 0.55873 1.00968
 C2818 C -0.12769 0.54411 1.00843
 C2819 C -0.12364 0.52191 1.00583
 C2820 C -0.10217 0.51429 1.00436
 C2821 C -0.09847 0.49205 1.00158
 C2822 C -0.11553 0.47775 1.00031
 C2823 C -0.13654 0.48521 1.00177
 C2824 C -0.14064 0.50702 1.00449
 C2825 C -0.11407 0.58100 1.01223
 C2826 C -0.09700 0.59531 1.01326
 C2827 C -0.07600 0.58784 1.01178
 C2828 C -0.07192 0.56601 1.00923
 C2829 C -0.14958 0.55201 1.00913
 C2830 C -0.16758 0.55908 1.00928
 C2831 C -0.06308 0.52124 1.00335
 C2832 C -0.04485 0.51520 1.00108
 H2833 H -0.08241 0.48549 1.00036
 H2834 H -0.11242 0.46079 0.99819
 H2835 H -0.14973 0.47403 1.00078
 H2836 H -0.15725 0.51207 1.00554
 H2837 H -0.13011 0.58760 1.01346
 H2838 H -0.10008 0.61228 1.01523
 H2839 H -0.06282 0.59902 1.01263
 H2840 H -0.05532 0.56097 1.00810
 C2841 C 0.01118 0.58980 0.51993
 C2842 C 0.02794 0.59572 0.53560
 C2843 C 0.02864 0.61681 0.54537
 C2844 C 0.01233 0.63177 0.53981
 C2845 C -0.00383 0.62615 0.52324
 C2846 C -0.00437 0.60514 0.51323
 C2847 C -0.02080 0.59987 0.49690
 C2848 C -0.03626 0.61492 0.49058
 C2849 C -0.03575 0.63543 0.50037
 C2850 C -0.01977 0.64106 0.51654
 C2851 C 0.04564 0.62234 0.56085
 C2852 C 0.06151 0.60749 0.56652
 C2853 C 0.06068 0.58682 0.55720
 C2854 C 0.04403 0.58087 0.54206
 C2855 C 0.01136 0.65235 0.55224
 C2856 C 0.01009 0.66910 0.56314
 C2857 C 0.00903 0.56762 0.51214
 C2858 C 0.00671 0.54901 0.50684
 H2859 H -0.02182 0.58413 0.48877
 H2860 H -0.04869 0.61063 0.47802
 H2861 H -0.04778 0.64706 0.49539
 H2862 H -0.01998 0.65724 0.52360
 H2863 H 0.04693 0.63822 0.56858
 H2864 H 0.07448 0.61203 0.57829
 H2865 H 0.07300 0.57532 0.56172
 H2866 H 0.04400 0.56457 0.53538
 C2867 C 0.51356 0.08975 0.02715
 C2868 C 0.50911 0.10757 0.01270
 C2869 C 0.50949 0.12862 0.02265
 C2870 C 0.51436 0.13174 0.04702
 C2871 C 0.51966 0.11395 0.06123
 C2872 C 0.51921 0.09292 0.05130
 C2873 C 0.52422 0.07540 0.06601
 C2874 C 0.52952 0.07854 0.08982
 C2875 C 0.53006 0.09908 0.09949
 C2876 C 0.52519 0.11663 0.08546
 C2877 C 0.50473 0.14613 0.00789
 C2878 C 0.49979 0.14298 -0.01603
 C2879 C 0.49945 0.12243 -0.02575
 C2880 C 0.50402 0.10486 -0.01162
 C2881 C 0.51305 0.15301 0.05784
 C2882 C 0.51167 0.17025 0.06770
 C2883 C 0.51101 0.06808 0.01788
 C2884 C 0.50833 0.04973 0.01169
 H2885 H 0.52415 0.05911 0.05930
 H2886 H 0.53332 0.06496 0.10079
 H2887 H 0.53427 0.10144 0.11798
 H2888 H 0.52586 0.13229 0.09382
 H2889 H 0.50485 0.16241 0.01465
 H2890 H 0.49622 0.15657 -0.02709
 H2891 H 0.49561 0.12008 -0.04434
 H2892 H 0.50361 0.08917 -0.01995
 C2893 C -0.01313 0.08676 0.96788
 C2894 C -0.01952 0.08999 0.94406
 C2895 C -0.01979 0.11097 0.93463
 C2896 C -0.01342 0.12861 0.94896
 C2897 C -0.00771 0.12545 0.97300
 C2898 C -0.00762 0.10446 0.98250
 C2899 C -0.00176 0.10169 1.00652
 C2900 C 0.00386 0.11915 1.02079
 C2901 C 0.00381 0.13965 1.01150
 C2902 C -0.00188 0.14285 0.98788
 C2903 C -0.02635 0.11377 0.91080
 C2904 C -0.03247 0.09636 0.89672
 C2905 C -0.03212 0.07585 0.90592
 C2906 C -0.02567 0.07260 0.92927
 C2907 C -0.01191 0.14973 0.93854
 C2908 C -0.01039 0.16684 0.92897
 C2909 C -0.01122 0.06511 0.97673
 C2910 C -0.00918 0.04679 0.98279
 H2911 H -0.00154 0.08604 1.01452
 H2912 H 0.00828 0.11676 1.03915
 H2913 H 0.00820 0.15315 1.02266
 H2914 H -0.00174 0.15909 0.98145
 H2915 H -0.02692 0.12941 0.90283
 H2916 H -0.03749 0.09881 0.87856
 H2917 H -0.03689 0.06238 0.89491
 H2918 H -0.02577 0.05634 0.93562
 C2919 C 0.48718 0.58810 0.47036
 C2920 C 0.50224 0.60344 0.47840
 C2921 C 0.50156 0.62462 0.46949
 C2922 C 0.48575 0.63039 0.45268
 C2923 C 0.46996 0.61537 0.44568
 C2924 C 0.47080 0.59411 0.45435
 C2925 C 0.45525 0.57921 0.44649
 C2926 C 0.43895 0.58527 0.43104
 C2927 C 0.43797 0.60610 0.42278
 C2928 C 0.45333 0.62101 0.42985
 C2929 C 0.51701 0.63956 0.47752
 C2930 C 0.53263 0.63378 0.49393
 C2931 C 0.53327 0.61309 0.50266
 C2932 C 0.51830 0.59802 0.49502
 C2933 C 0.48662 0.65122 0.44143
 C2934 C 0.48782 0.66815 0.43141
 C2935 C 0.48930 0.56591 0.47744
 C2936 C 0.49150 0.54734 0.48248
 H2937 H 0.45541 0.56279 0.45232
 H2938 H 0.42704 0.57372 0.42544
 H2939 H 0.42529 0.61072 0.41076
 H2940 H 0.45194 0.63702 0.42291
 H2941 H 0.51710 0.65587 0.47131
 H2942 H 0.54430 0.64542 0.49992
 H2943 H 0.54543 0.60869 0.51541
 H2944 H 0.51941 0.58214 0.50235
 C2945 C 0.51268 0.91232 0.47359
 C2946 C 0.49555 0.89817 0.47826
 C2947 C 0.49605 0.87695 0.46885
 C2948 C 0.51375 0.86991 0.45493
 C2949 C 0.53141 0.88370 0.45138
 C2950 C 0.53077 0.90503 0.46050
 C2951 C 0.54827 0.91873 0.45596
 C2952 C 0.56621 0.91141 0.44345
 C2953 C 0.56698 0.89049 0.43483
 C2954 C 0.54976 0.87676 0.43856
 C2955 C 0.47853 0.86326 0.47342
 C2956 C 0.46107 0.87029 0.48695
 C2957 C 0.46061 0.89101 0.49617
 C2958 C 0.47760 0.90486 0.49192
 C2959 C 0.51299 0.84913 0.44295
 C2960 C 0.51149 0.83223 0.43244
 C2961 C 0.51103 0.93465 0.48094
 C2962 C 0.50907 0.95335 0.48609
 H2963 H 0.54831 0.93519 0.46211
 H2964 H 0.57958 0.92205 0.44041
 H2965 H 0.58095 0.88488 0.42510
 H2966 H 0.55103 0.86064 0.43145
 H2967 H 0.47819 0.84698 0.46670
 H2968 H 0.44783 0.85959 0.49030
 H2969 H 0.44701 0.89638 0.50668
 H2970 H 0.47652 0.92082 0.49951
 C2971 C 0.01724 0.41334 0.96671
 C2972 C 0.02158 0.40967 0.94231
 C2973 C 0.02212 0.38842 0.93302
 C2974 C 0.01840 0.37092 0.94821
 C2975 C 0.01545 0.37456 0.97288
 C2976 C 0.01489 0.39583 0.98216
 C2977 C 0.01182 0.39909 1.00684
 C2978 C 0.00938 0.38180 1.02197
 C2979 C 0.00986 0.36101 1.01291
 C2980 C 0.01282 0.35734 0.98865
 C2981 C 0.02616 0.38521 0.90848
 C2982 C 0.02967 0.40247 0.89357
 C2983 C 0.02919 0.42323 0.90267
 C2984 C 0.02519 0.42689 0.92673
 C2985 C 0.01638 0.34946 0.93811
 C2986 C 0.01402 0.33208 0.92886
 C2987 C 0.01405 0.43510 0.97545
 C2988 C 0.01101 0.45341 0.98160
 H2989 H 0.01144 0.41498 1.01468
 H2990 H 0.00712 0.38456 1.04083
 H2991 H 0.00796 0.34765 1.02475
 H2992 H 0.01317 0.34090 0.98241
 H2993 H 0.02679 0.36935 0.90058
 H2994 H 0.03279 0.39972 0.87486
 H2995 H 0.03196 0.43658 0.89102
 H2996 H 0.02508 0.44332 0.93299
 C2997 C 0.48845 0.41285 0.02325
 C2998 C 0.50784 0.40351 0.03126
 C2999 C 0.50767 0.38287 0.04158
 C3000 C 0.48810 0.37161 0.04391
 C3001 C 0.46882 0.38065 0.03515
 C3002 C 0.46903 0.40128 0.02468
 C3003 C 0.44962 0.40994 0.01603
 C3004 C 0.43047 0.39863 0.01775
 C3005 C 0.43021 0.37859 0.02815
 C3006 C 0.44913 0.36961 0.03677
 C3007 C 0.52727 0.37403 0.04963
 C3008 C 0.54645 0.38522 0.04756
 C3009 C 0.54661 0.40539 0.03751
 C3010 C 0.52759 0.41451 0.02943
 C3011 C 0.48797 0.35115 0.05606
 C3012 C 0.48900 0.33452 0.06675
 C3013 C 0.48851 0.43490 0.01526
 C3014 C 0.48969 0.45353 0.01008
 H3015 H 0.44904 0.42551 0.00786
 H3016 H 0.41572 0.40554 0.01112
 H3017 H 0.41527 0.36993 0.02953
 H3018 H 0.44819 0.35394 0.04463
 H3019 H 0.52802 0.35838 0.05756
 H3020 H 0.56127 0.37820 0.05381
 H3021 H 0.56155 0.41402 0.03594
 H3022 H 0.52858 0.43021 0.02166
 C3023 C -0.01048 0.91073 0.52224
 C3024 C -0.03019 0.89967 0.52382
 C3025 C -0.03087 0.87905 0.53427
 C3026 C -0.01179 0.86953 0.54291
 C3027 C 0.00806 0.88029 0.54046
 C3028 C 0.00870 0.90091 0.53012
 C3029 C 0.02871 0.91140 0.52813
 C3030 C 0.04754 0.90181 0.53609
 C3031 C 0.04692 0.88167 0.54618
 C3032 C 0.02747 0.87096 0.54839
 C3033 C -0.05082 0.86849 0.53597
 C3034 C -0.06955 0.87794 0.52750
 C3035 C -0.06886 0.89801 0.51716
 C3036 C -0.04944 0.90884 0.51534
 C3037 C -0.01239 0.84909 0.55508
 C3038 C -0.01172 0.83245 0.56579
 C3039 C -0.00991 0.93271 0.51408
 C3040 C -0.00847 0.95126 0.50863
 H3041 H 0.03006 0.92706 0.52034
 H3042 H 0.06269 0.91006 0.53441
 H3043 H 0.06159 0.87428 0.55234
 H3044 H 0.02786 0.85531 0.55634
 H3045 H -0.05211 0.85282 0.54379
 H3046 H -0.08470 0.86964 0.52894
 H3047 H -0.08346 0.90528 0.51064
 H3048 H -0.04967 0.92443 0.50720
 C3049 C 0.21385 0.29277 0.17853
 C3050 C 0.21291 0.28098 0.15697
 C3051 C 0.21361 0.29185 0.13500
 C3052 C 0.21518 0.31440 0.13486
 C3053 C 0.21388 0.32625 0.15642
 C3054 C 0.21326 0.31536 0.17837
 C3055 C 0.21273 0.32742 0.19979
 C3056 C 0.21258 0.34970 0.19952
 C3057 C 0.21310 0.36039 0.17802
 C3058 C 0.21381 0.34888 0.15665
 C3059 C 0.21331 0.27974 0.11361
 C3060 C 0.21226 0.25748 0.11395
 C3061 C 0.21159 0.24684 0.13548
 C3062 C 0.21196 0.25838 0.15682
 C3063 C 0.22035 0.32521 0.11298
 C3064 C 0.22558 0.33439 0.09522
 C3065 C 0.21935 0.28191 0.20023
 C3066 C 0.22620 0.27317 0.21753
 H3067 H 0.21228 0.31972 0.21687
 H3068 H 0.21209 0.35870 0.21606
 H3069 H 0.21298 0.37770 0.17789
 H3070 H 0.21417 0.35786 0.14035
 H3071 H 0.21374 0.28736 0.09646
 H3072 H 0.21197 0.24845 0.09743
 H3073 H 0.21077 0.22956 0.13566
 H3074 H 0.21130 0.24948 0.17316
 C3075 C 0.71642 0.79184 0.67859
 C3076 C 0.71191 0.81398 0.67813
 C3077 C 0.71288 0.82503 0.65627
 C3078 C 0.71814 0.81371 0.63509
 C3079 C 0.72050 0.79121 0.63528
 C3080 C 0.71963 0.78022 0.65715
 C3081 C 0.72263 0.75778 0.65711
 C3082 C 0.72629 0.74649 0.63597
 C3083 C 0.72711 0.75725 0.61453
 C3084 C 0.72430 0.77937 0.61409
 C3085 C 0.70899 0.84733 0.65627
 C3086 C 0.70392 0.85831 0.67727
 C3087 C 0.70272 0.84742 0.69861
 C3088 C 0.70687 0.82552 0.69918
 C3089 C 0.72296 0.82525 0.61359
 C3090 C 0.72781 0.83466 0.59586
 C3091 C 0.72150 0.78175 0.70085
 C3092 C 0.72807 0.77323 0.71842
 H3093 H 0.72199 0.74873 0.67336
 H3094 H 0.72847 0.72932 0.63623
 H3095 H 0.72995 0.74842 0.59815
 H3096 H 0.72501 0.78704 0.59699
 H3097 H 0.70962 0.85641 0.64005
 H3098 H 0.70086 0.87536 0.67697
 H3099 H 0.69862 0.85600 0.71481
 H3100 H 0.70585 0.81767 0.71618
 C3101 C 0.28403 0.70778 0.67249
 C3102 C 0.28404 0.68518 0.67221
 C3103 C 0.28311 0.67387 0.65022
 C3104 C 0.28207 0.68533 0.62871
 C3105 C 0.28412 0.70785 0.62895
 C3106 C 0.28514 0.71913 0.65097
 C3107 C 0.28660 0.74169 0.65090
 C3108 C 0.28716 0.75281 0.62961
 C3109 C 0.28618 0.74177 0.60804
 C3110 C 0.28463 0.71954 0.60761
 C3111 C 0.28267 0.65126 0.65035
 C3112 C 0.28319 0.64015 0.67167
 C3113 C 0.28399 0.65124 0.69321
 C3114 C 0.28432 0.67352 0.69358
 C3115 C 0.27686 0.67420 0.60674
 C3116 C 0.27170 0.66491 0.58879
 C3117 C 0.27911 0.71921 0.69433
 C3118 C 0.27274 0.72851 0.71179
 H3119 H 0.28751 0.75090 0.66727
 H3120 H 0.28836 0.77007 0.62986
 H3121 H 0.28662 0.75048 0.59156
 H3122 H 0.28398 0.71161 0.59043
 H3123 H 0.28207 0.64197 0.63401
 H3124 H 0.28293 0.62284 0.67146
 H3125 H 0.28433 0.64256 0.70972
 H3126 H 0.28494 0.68153 0.71069
 C3127 C 0.78344 0.20221 0.17428
 C3128 C 0.78313 0.17962 0.17332
 C3129 C 0.78239 0.16887 0.15098
 C3130 C 0.78179 0.18086 0.12983
 C3131 C 0.78413 0.20334 0.13078
 C3132 C 0.78500 0.21407 0.15313
 C3133 C 0.78679 0.23661 0.15377
 C3134 C 0.78779 0.24823 0.13284
 C3135 C 0.78695 0.23773 0.11094
 C3136 C 0.78509 0.21554 0.10982
 C3137 C 0.78169 0.14625 0.15042
 C3138 C 0.78177 0.13462 0.17139
 C3139 C 0.78236 0.14518 0.19328
 C3140 C 0.78291 0.16744 0.19432
 C3141 C 0.77675 0.17033 0.10747
 C3142 C 0.77172 0.16148 0.08920
 C3143 C 0.77853 0.21319 0.19640
 C3144 C 0.77225 0.22224 0.21406
 H3145 H 0.78760 0.24541 0.17042
 H3146 H 0.78924 0.26547 0.13363
 H3147 H 0.78774 0.24683 0.09474
 H3148 H 0.78456 0.20804 0.09240
 H3149 H 0.78122 0.13737 0.13381
 H3150 H 0.78132 0.11732 0.17066
 H3151 H 0.78235 0.13609 0.20952
 H3152 H 0.78329 0.17502 0.21168
 C3153 C 0.71632 0.20509 0.82776
 C3154 C 0.71616 0.18248 0.82747
 C3155 C 0.71721 0.17120 0.84918
 C3156 C 0.71841 0.18267 0.87099
 C3157 C 0.71675 0.20525 0.87131
 C3158 C 0.71568 0.21650 0.84959
 C3159 C 0.71453 0.23910 0.85025
 C3160 C 0.71435 0.25028 0.87182
 C3161 C 0.71539 0.23928 0.89309
 C3162 C 0.71662 0.21702 0.89295
 C3163 C 0.71751 0.14858 0.84844
 C3164 C 0.71675 0.13744 0.82685
 C3165 C 0.71577 0.14849 0.80560
 C3166 C 0.71553 0.17078 0.80581
 C3167 C 0.72281 0.17140 0.89282
 C3168 C 0.72700 0.16207 0.91084
 C3169 C 0.72074 0.21642 0.80604
 C3170 C 0.72668 0.22557 0.78858
 H3171 H 0.71359 0.24830 0.83413
 H3172 H 0.71338 0.26757 0.87202
 H3173 H 0.71524 0.24804 0.90980
 H3174 H 0.71735 0.20915 0.90994
 H3175 H 0.71824 0.13930 0.86452
 H3176 H 0.71694 0.12013 0.82660
 H3177 H 0.71521 0.13977 0.78889
 H3178 H 0.71469 0.17875 0.78891
 C3179 C 0.21671 0.70750 0.32869
 C3180 C 0.22138 0.71866 0.35007
 C3181 C 0.22249 0.70741 0.37177
 C3182 C 0.21892 0.68507 0.37190
 C3183 C 0.21257 0.67426 0.35082
 C3184 C 0.21138 0.68556 0.32913
 C3185 C 0.20525 0.67448 0.30818
 C3186 C 0.20027 0.65279 0.30870
 C3187 C 0.20160 0.64165 0.32987
 C3188 C 0.20771 0.65218 0.35076
 C3189 C 0.22765 0.71881 0.39286
 C3190 C 0.23156 0.74073 0.39249
 C3191 C 0.23050 0.75174 0.37123
 C3192 C 0.22550 0.74090 0.35020
 C3193 C 0.22309 0.67316 0.39336
 C3194 C 0.22714 0.66349 0.41119
 C3195 C 0.22074 0.71780 0.30627
 C3196 C 0.22646 0.72647 0.28842
 H3197 H 0.20408 0.68251 0.29131
 H3198 H 0.19546 0.64455 0.29256
 H3199 H 0.19785 0.62477 0.33013
 H3200 H 0.20843 0.64291 0.36683
 H3201 H 0.22861 0.71095 0.40984
 H3202 H 0.23544 0.74921 0.40879
 H3203 H 0.23355 0.76876 0.37103
 H3204 H 0.22473 0.75016 0.33411
 C3205 C 0.78301 0.79007 0.33430
 C3206 C 0.77690 0.77904 0.35502
 C3207 C 0.77580 0.79012 0.37716
 C3208 C 0.78090 0.81214 0.37840
 C3209 C 0.78845 0.82277 0.35798
 C3210 C 0.78944 0.81169 0.33581
 C3211 C 0.79642 0.82272 0.31546
 C3212 C 0.80249 0.84411 0.31697
 C3213 C 0.80165 0.85495 0.33868
 C3214 C 0.79467 0.84450 0.35901
 C3215 C 0.76911 0.77891 0.39755
 C3216 C 0.76365 0.75735 0.39608
 C3217 C 0.76471 0.74650 0.37441
 C3218 C 0.77124 0.75713 0.35406
 C3219 C 0.77689 0.82405 0.40024
 C3220 C 0.77289 0.83377 0.41834
 C3221 C 0.77963 0.78000 0.31132
 C3222 C 0.77444 0.77136 0.29304
 H3223 H 0.79734 0.81485 0.29828
 H3224 H 0.80788 0.85230 0.30123
 H3225 H 0.80641 0.87156 0.33979
 H3226 H 0.79429 0.85355 0.37551
 H3227 H 0.76809 0.78665 0.41481
 H3228 H 0.75856 0.74902 0.41185
 H3229 H 0.76044 0.72975 0.37335
 H3230 H 0.77191 0.74799 0.33762
 C3231 C 0.28515 0.29508 0.83341
 C3232 C 0.28643 0.28362 0.85485
 C3233 C 0.28549 0.29479 0.87695
 C3234 C 0.28335 0.31734 0.87739
 C3235 C 0.28394 0.32889 0.85593
 C3236 C 0.28478 0.31769 0.83384
 C3237 C 0.28468 0.32946 0.81255
 C3238 C 0.28409 0.35174 0.81306
 C3239 C 0.28339 0.36272 0.83468
 C3240 C 0.28323 0.35150 0.85594
 C3241 C 0.28627 0.28298 0.89820
 C3242 C 0.28797 0.26075 0.89761
 C3243 C 0.28887 0.24982 0.87596
 C3244 C 0.28808 0.26105 0.85476
 C3245 C 0.27891 0.32840 0.89968
 C3246 C 0.27459 0.33744 0.91812
 C3247 C 0.28085 0.28369 0.81140
 C3248 C 0.27514 0.27443 0.79368
 H3249 H 0.28518 0.32156 0.79536
 H3250 H 0.28415 0.36050 0.79660
 H3251 H 0.28292 0.38003 0.83500
 H3252 H 0.28269 0.36071 0.87233
 H3253 H 0.28568 0.29079 0.91546
 H3254 H 0.28859 0.25195 0.91403
 H3255 H 0.29020 0.23256 0.87559
 H3256 H 0.28894 0.25191 0.83833
 C3257 C 0.77900 0.33385 0.75798
 C3258 C 0.76528 0.35136 0.75322
 C3259 C 0.77339 0.37255 0.75445
 C3260 C 0.79515 0.37605 0.76044
 C3261 C 0.80887 0.35850 0.76514
 C3262 C 0.80079 0.33733 0.76379
 C3263 C 0.81491 0.32002 0.76810
 C3264 C 0.83639 0.32354 0.77369
 C3265 C 0.84425 0.34426 0.77520
 C3266 C 0.83074 0.36160 0.77099
 C3267 C 0.75946 0.38981 0.74937
 C3268 C 0.73812 0.38623 0.74321
 C3269 C 0.73019 0.36550 0.74198
 C3270 C 0.74354 0.34820 0.74693
 C3271 C 0.80373 0.39756 0.76092
 C3272 C 0.81164 0.41510 0.76097
 C3273 C 0.77092 0.31221 0.75617
 C3274 C 0.76463 0.29412 0.75425
 H3275 H 0.80954 0.30362 0.76710
 H3276 H 0.84700 0.31015 0.77683
 H3277 H 0.86094 0.34692 0.77960
 H3278 H 0.83765 0.37741 0.77232
 H3279 H 0.76491 0.40621 0.75008
 H3280 H 0.72769 0.39962 0.73934
 H3281 H 0.71361 0.36281 0.73716
 H3282 H 0.73665 0.33237 0.74571
 C3283 C 0.27824 0.83487 0.25903
 C3284 C 0.26656 0.85176 0.24860
 C3285 C 0.27444 0.87301 0.25020
 C3286 C 0.29394 0.87718 0.26220
 C3287 C 0.30561 0.86026 0.27264
 C3288 C 0.29776 0.83901 0.27098
 C3289 C 0.30986 0.82228 0.28121
 C3290 C 0.32916 0.82646 0.29280
 C3291 C 0.33679 0.84726 0.29452
 C3292 C 0.32523 0.86403 0.28460
 C3293 C 0.26267 0.88963 0.23936
 C3294 C 0.24369 0.88535 0.22718
 C3295 C 0.23601 0.86455 0.22556
 C3296 C 0.24724 0.84788 0.23614
 C3297 C 0.30262 0.89864 0.26276
 C3298 C 0.31050 0.91619 0.26280
 C3299 C 0.27051 0.81315 0.25685
 C3300 C 0.26433 0.79506 0.25463
 H3301 H 0.30459 0.80583 0.28029
 H3302 H 0.33826 0.81352 0.30048
 H3303 H 0.35178 0.85043 0.30357
 H3304 H 0.33184 0.87994 0.28639
 H3305 H 0.26802 0.90607 0.24013
 H3306 H 0.23491 0.89824 0.21894
 H3307 H 0.22128 0.86129 0.21605
 H3308 H 0.24065 0.83196 0.23435
 C3309 C 0.22009 0.83752 0.74069
 C3310 C 0.23104 0.85436 0.75241
 C3311 C 0.22325 0.87566 0.75071
 C3312 C 0.20458 0.87991 0.73728
 C3313 C 0.19367 0.86304 0.72548
 C3314 C 0.20141 0.84174 0.72728
 C3315 C 0.19004 0.82506 0.71572
 C3316 C 0.17156 0.82933 0.70270
 C3317 C 0.16405 0.85019 0.70083
 C3318 C 0.17491 0.86692 0.71204
 C3319 C 0.23423 0.89223 0.76290
 C3320 C 0.25235 0.88784 0.77649
 C3321 C 0.25996 0.86700 0.77818
 C3322 C 0.24952 0.85039 0.76628
 C3323 C 0.19586 0.90140 0.73667
 C3324 C 0.18788 0.91895 0.73661
 C3325 C 0.22768 0.81578 0.74300
 C3326 C 0.23382 0.79769 0.74528
 H3327 H 0.19526 0.80857 0.71669
 H3328 H 0.16299 0.81642 0.69402
 H3329 H 0.14970 0.85344 0.69067
 H3330 H 0.16842 0.88287 0.71008
 H3331 H 0.22891 0.90869 0.76213
 H3332 H 0.26052 0.90070 0.78577
 H3333 H 0.27402 0.86367 0.78879
 H3334 H 0.25601 0.83443 0.76820
 C3335 C 0.71981 0.33112 0.24273
 C3336 C 0.73377 0.34745 0.23511
 C3337 C 0.72596 0.36868 0.23290
 C3338 C 0.70424 0.37337 0.23825
 C3339 C 0.69022 0.35695 0.24562
 C3340 C 0.69809 0.33578 0.24806
 C3341 C 0.68394 0.31970 0.25601
 C3342 C 0.66251 0.32433 0.26093
 C3343 C 0.65472 0.34501 0.25827
 C3344 C 0.66835 0.36121 0.25079
 C3345 C 0.74020 0.38482 0.22538
 C3346 C 0.76158 0.38008 0.22018
 C3347 C 0.76923 0.35928 0.22234
 C3348 C 0.75556 0.34308 0.22972
 C3349 C 0.69634 0.39511 0.23684
 C3350 C 0.68906 0.41294 0.23631
 C3351 C 0.72776 0.30954 0.24529
 C3352 C 0.73400 0.29151 0.24775
 H3353 H 0.68926 0.30339 0.25848
 H3354 H 0.65189 0.31180 0.26682
 H3355 H 0.63804 0.34855 0.26208
 H3356 H 0.66154 0.37706 0.24906
 H3357 H 0.73497 0.40122 0.22341
 H3358 H 0.77227 0.39261 0.21443
 H3359 H 0.78586 0.35568 0.21829
 H3360 H 0.76224 0.32715 0.23115
 C3361 C 0.72367 0.66212 0.26269
 C3362 C 0.70172 0.65802 0.25829
 C3363 C 0.69401 0.63670 0.25873
 C3364 C 0.70831 0.61967 0.26367
 C3365 C 0.73021 0.62383 0.26837
 C3366 C 0.73792 0.64515 0.26786
 C3367 C 0.75990 0.64897 0.27245
 C3368 C 0.77386 0.63216 0.27745
 C3369 C 0.76631 0.61128 0.27797
 C3370 C 0.74474 0.60707 0.27349
 C3371 C 0.67204 0.63293 0.25399
 C3372 C 0.65810 0.64975 0.24896
 C3373 C 0.66565 0.67062 0.24855
 C3374 C 0.68719 0.67481 0.25315
 C3375 C 0.70051 0.59788 0.26330
 C3376 C 0.69347 0.57999 0.26248
 C3377 C 0.73165 0.68372 0.26101
 C3378 C 0.73785 0.70176 0.25895
 H3379 H 0.76651 0.66494 0.27226
 H3380 H 0.79063 0.63535 0.28094
 H3381 H 0.77721 0.59828 0.28187
 H3382 H 0.73960 0.59058 0.27410
 H3383 H 0.66539 0.61698 0.25411
 H3384 H 0.64136 0.64657 0.24536
 H3385 H 0.65476 0.68361 0.24464
 H3386 H 0.69230 0.69131 0.25256
 C3387 C 0.22371 0.16573 0.76019
 C3388 C 0.22988 0.15069 0.74246
 C3389 C 0.22141 0.12966 0.74282
 C3390 C 0.20690 0.12382 0.76099
 C3391 C 0.20083 0.13887 0.77880
 C3392 C 0.20931 0.15990 0.77842
 C3393 C 0.20298 0.17473 0.79633
 C3394 C 0.18856 0.16896 0.81405
 C3395 C 0.18019 0.14840 0.81437
 C3396 C 0.18622 0.13345 0.79702
 C3397 C 0.22750 0.11497 0.72467
 C3398 C 0.24156 0.12092 0.70666
 C3399 C 0.24989 0.14150 0.70634
 C3400 C 0.24422 0.15626 0.72402
 C3401 C 0.19771 0.10258 0.76089
 C3402 C 0.18977 0.08507 0.76032
 C3403 C 0.23161 0.18741 0.75916
 C3404 C 0.23791 0.20547 0.75773
 H3405 H 0.20898 0.19094 0.79675
 H3406 H 0.18378 0.18054 0.82753
 H3407 H 0.16895 0.14401 0.82814
 H3408 H 0.17929 0.11765 0.79803
 H3409 H 0.22144 0.09878 0.72414
 H3410 H 0.24597 0.10952 0.69285
 H3411 H 0.26075 0.14607 0.69228
 H3412 H 0.25105 0.17210 0.72295
 C3413 C 0.27945 0.16515 0.24677
 C3414 C 0.29923 0.16011 0.23565
 C3415 C 0.30609 0.13846 0.23382
 C3416 C 0.29322 0.12205 0.24340
 C3417 C 0.27355 0.12715 0.25479
 C3418 C 0.26663 0.14879 0.25647
 C3419 C 0.24708 0.15357 0.26826
 C3420 C 0.23471 0.13742 0.27811
 C3421 C 0.24144 0.11624 0.27640
 C3422 C 0.26062 0.11107 0.26488
 C3423 C 0.32591 0.13377 0.22254
 C3424 C 0.33867 0.15004 0.21353
 C3425 C 0.33206 0.17123 0.21555
 C3426 C 0.31256 0.17631 0.22644
 C3427 C 0.30072 0.10009 0.24254
 C3428 C 0.30745 0.08201 0.24232
 C3429 C 0.27243 0.18719 0.24865
 C3430 C 0.26656 0.20545 0.25065
 H3431 H 0.24119 0.16982 0.27011
 H3432 H 0.21982 0.14137 0.28712
 H3433 H 0.23178 0.10375 0.28408
 H3434 H 0.26520 0.09437 0.26403
 H3435 H 0.33177 0.11753 0.22059
 H3436 H 0.35381 0.14617 0.20502
 H3437 H 0.34211 0.18380 0.20866
 H3438 H 0.30812 0.19302 0.22768
 C3439 C 0.78192 0.66497 0.74465
 C3440 C 0.80395 0.66054 0.74824
 C3441 C 0.81167 0.63921 0.74606
 C3442 C 0.79721 0.62241 0.74073
 C3443 C 0.77520 0.62687 0.73702
 C3444 C 0.76753 0.64824 0.73894
 C3445 C 0.74545 0.65235 0.73525
 C3446 C 0.73133 0.63578 0.72981
 C3447 C 0.73884 0.61486 0.72793
 C3448 C 0.76051 0.61036 0.73148
 C3449 C 0.83380 0.63519 0.74953
 C3450 C 0.84787 0.65177 0.75510
 C3451 C 0.84026 0.67260 0.75754
 C3452 C 0.81855 0.67701 0.75428
 C3453 C 0.80491 0.60050 0.73996
 C3454 C 0.81172 0.58244 0.73991
 C3455 C 0.77404 0.68666 0.74736
 C3456 C 0.76776 0.70473 0.75007
 H3457 H 0.73886 0.66836 0.73652
 H3458 H 0.71449 0.63919 0.72703
 H3459 H 0.72781 0.60204 0.72370
 H3460 H 0.76560 0.59384 0.72980
 H3461 H 0.84048 0.61924 0.74792
 H3462 H 0.86476 0.64842 0.75764
 H3463 H 0.85122 0.68543 0.76197
 H3464 H 0.81337 0.69344 0.75656
 C3465 C 0.84058 0.76184 0.22772
 C3466 C 0.85651 0.74681 0.23419
 C3467 C 0.87731 0.74773 0.22377
 C3468 C 0.88213 0.76375 0.20704
 C3469 C 0.86656 0.77952 0.20164
 C3470 C 0.84567 0.77843 0.21180
 C3471 C 0.83018 0.79393 0.20545
 C3472 C 0.83533 0.81043 0.19009
 C3473 C 0.85581 0.81166 0.18041
 C3474 C 0.87128 0.79635 0.18593
 C3475 C 0.89283 0.73229 0.23024
 C3476 C 0.88798 0.71644 0.24655
 C3477 C 0.86767 0.71557 0.25674
 C3478 C 0.85205 0.73053 0.25068
 C3479 C 0.90251 0.76317 0.19430
 C3480 C 0.91912 0.76215 0.18319
 C3481 C 0.81862 0.75933 0.23605
 C3482 C 0.80015 0.75674 0.24178
 H3483 H 0.81399 0.79356 0.21240
 H3484 H 0.82334 0.82230 0.18567
 H3485 H 0.85973 0.82451 0.16846
 H3486 H 0.88697 0.79793 0.17791
 H3487 H 0.90888 0.73237 0.22285
 H3488 H 0.90005 0.70478 0.25132
 H3489 H 0.86399 0.70323 0.26941
 H3490 H 0.83649 0.72924 0.25911
 C3491 C 0.34167 0.26462 0.72909
 C3492 C 0.35705 0.24861 0.73422
 C3493 C 0.37777 0.24932 0.72360
 C3494 C 0.38306 0.26610 0.70799
 C3495 C 0.36810 0.28279 0.70400
 C3496 C 0.34729 0.28193 0.71439
 C3497 C 0.33239 0.29842 0.70947
 C3498 C 0.33805 0.31559 0.69528
 C3499 C 0.35847 0.31656 0.68536
 C3500 C 0.37334 0.30033 0.68950
 C3501 C 0.39271 0.23292 0.72870
 C3502 C 0.38738 0.21633 0.74389
 C3503 C 0.36714 0.21566 0.75427
 C3504 C 0.35208 0.23156 0.74954
 C3505 C 0.40327 0.26542 0.69494
 C3506 C 0.41976 0.26430 0.68362
 C3507 C 0.31967 0.26238 0.73735
 C3508 C 0.30114 0.25999 0.74291
 H3509 H 0.31627 0.29828 0.71664
 H3510 H 0.32652 0.32819 0.69195
 H3511 H 0.36278 0.32993 0.67433
 H3512 H 0.38901 0.30174 0.68135
 H3513 H 0.40868 0.23280 0.72112
 H3514 H 0.39902 0.20394 0.74763
 H3515 H 0.36308 0.20274 0.76606
 H3516 H 0.33656 0.23040 0.75808
 C3517 C 0.33768 0.73901 0.77590
 C3518 C 0.35310 0.75420 0.76876
 C3519 C 0.37422 0.75354 0.77829
 C3520 C 0.37986 0.73761 0.79484
 C3521 C 0.36478 0.72169 0.80094
 C3522 C 0.34358 0.72252 0.79164
 C3523 C 0.32861 0.70684 0.79864
 C3524 C 0.33454 0.69046 0.81385
 C3525 C 0.35532 0.68950 0.82271
 C3526 C 0.37030 0.70497 0.81650
 C3527 C 0.38922 0.76913 0.77115
 C3528 C 0.38356 0.78489 0.75502
 C3529 C 0.36294 0.78552 0.74569
 C3530 C 0.34781 0.77040 0.75243
 C3531 C 0.40058 0.73847 0.80677
 C3532 C 0.41740 0.73965 0.81737
 C3533 C 0.31548 0.74114 0.76830
 C3534 C 0.29688 0.74341 0.76292
 H3535 H 0.31222 0.70699 0.79234
 H3536 H 0.32294 0.67847 0.81880
 H3537 H 0.35985 0.67675 0.83454
 H3538 H 0.38626 0.70359 0.82389
 H3539 H 0.40548 0.76924 0.77786
 H3540 H 0.39525 0.79667 0.74971
 H3541 H 0.35863 0.79779 0.73315
 H3542 H 0.33198 0.77151 0.74465
 C3543 C 0.83788 0.23310 0.27752
 C3544 C 0.85285 0.24900 0.27111
 C3545 C 0.87394 0.24865 0.28073
 C3546 C 0.88002 0.23232 0.29660
 C3547 C 0.86543 0.21572 0.30190
 C3548 C 0.84425 0.21622 0.29250
 C3549 C 0.82978 0.19981 0.29865
 C3550 C 0.83617 0.18308 0.31315
 C3551 C 0.85692 0.18247 0.32214
 C3552 C 0.87141 0.19863 0.31675
 C3553 C 0.88847 0.26494 0.27435
 C3554 C 0.88238 0.28108 0.25888
 C3555 C 0.86178 0.28140 0.24947
 C3556 C 0.84711 0.26560 0.25547
 C3557 C 0.90068 0.23340 0.30863
 C3558 C 0.91749 0.23483 0.31921
 C3559 C 0.81562 0.23495 0.27006
 C3560 C 0.79697 0.23711 0.26486
 H3561 H 0.81343 0.19968 0.29224
 H3562 H 0.82494 0.17053 0.31745
 H3563 H 0.86180 0.16945 0.33344
 H3564 H 0.88736 0.19751 0.32420
 H3565 H 0.90470 0.26532 0.28115
 H3566 H 0.89371 0.29340 0.25416
 H3567 H 0.85713 0.29397 0.23745
 H3568 H 0.83129 0.26649 0.24765
 C3569 C 0.16217 0.26320 0.28194
 C3570 C 0.15582 0.27932 0.29841
 C3571 C 0.13445 0.27977 0.30738
 C3572 C 0.11966 0.26381 0.30021
 C3573 C 0.12575 0.24827 0.28293
 C3574 C 0.14703 0.24800 0.27372
 C3575 C 0.15277 0.23219 0.25663
 C3576 C 0.13792 0.21707 0.24884
 C3577 C 0.11714 0.21730 0.25786
 C3578 C 0.11104 0.23267 0.27472
 C3579 C 0.12847 0.29614 0.32367
 C3580 C 0.14316 0.31165 0.33092
 C3581 C 0.16410 0.31106 0.32237
 C3582 C 0.17049 0.29502 0.30644
 C3583 C 0.09877 0.26243 0.31177
 C3584 C 0.08178 0.26052 0.32190
 C3585 C 0.18449 0.26143 0.27454
 C3586 C 0.20314 0.25939 0.26914
 H3587 H 0.16873 0.23140 0.24905
 H3588 H 0.14257 0.20511 0.23573
 H3589 H 0.10567 0.20552 0.25174
 H3590 H 0.09468 0.23226 0.28114
 H3591 H 0.11237 0.29722 0.33083
 H3592 H 0.13828 0.32414 0.34330
 H3593 H 0.17548 0.32308 0.32812
 H3594 H 0.18697 0.29517 0.30039
 C3595 C 0.66347 0.76047 0.78303
 C3596 C 0.65236 0.78016 0.78554
 C3597 C 0.63120 0.78062 0.79517
 C3598 C 0.62121 0.76134 0.80207
 C3599 C 0.63211 0.74158 0.79883
 C3600 C 0.65326 0.74115 0.78931
 C3601 C 0.66385 0.72119 0.78645
 C3602 C 0.65385 0.70222 0.79280
 C3603 C 0.63319 0.70263 0.80211
 C3604 C 0.62237 0.72202 0.80513
 C3605 C 0.62057 0.80053 0.79780
 C3606 C 0.63048 0.81945 0.79098
 C3607 C 0.65106 0.81897 0.78140
 C3608 C 0.66198 0.79960 0.77873
 C3609 C 0.60005 0.76164 0.81320
 C3610 C 0.58278 0.76077 0.82297
 C3611 C 0.68574 0.75996 0.77519
 C3612 C 0.70441 0.75854 0.76961
 H3613 H 0.67992 0.72000 0.77922
 H3614 H 0.66219 0.68711 0.79048
 H3615 H 0.62549 0.68784 0.80702
 H3616 H 0.60631 0.72146 0.81241
 H3617 H 0.60451 0.80167 0.80508
 H3618 H 0.62211 0.83456 0.79309
 H3619 H 0.65865 0.83370 0.77609
 H3620 H 0.67798 0.80001 0.77123
 C3621 C 0.66128 0.23560 0.72358
 C3622 C 0.64599 0.25114 0.73094
 C3623 C 0.62512 0.25122 0.72073
 C3624 C 0.61959 0.23567 0.70329
 C3625 C 0.63449 0.21938 0.69697
 C3626 C 0.65544 0.21946 0.70698
 C3627 C 0.67025 0.20342 0.69980
 C3628 C 0.66438 0.18742 0.68367
 C3629 C 0.64384 0.18721 0.67409
 C3630 C 0.62903 0.20303 0.68050
 C3631 C 0.61027 0.26716 0.72809
 C3632 C 0.61583 0.28254 0.74508
 C3633 C 0.63621 0.28245 0.75507
 C3634 C 0.65119 0.26698 0.74814
 C3635 C 0.59919 0.23731 0.69082
 C3636 C 0.58255 0.23936 0.68005
 C3637 C 0.68339 0.23723 0.73166
 C3638 C 0.70194 0.23929 0.73730
 H3639 H 0.68644 0.20299 0.70666
 H3640 H 0.67585 0.17514 0.67856
 H3641 H 0.63937 0.17475 0.66154
 H3642 H 0.61326 0.20224 0.67255
 H3643 H 0.59420 0.26784 0.72089
 H3644 H 0.60425 0.29460 0.75054
 H3645 H 0.64044 0.29443 0.76828
 H3646 H 0.66682 0.26752 0.75646
 C3647 C 0.16063 0.73917 0.22371
 C3648 C 0.15032 0.75869 0.21812
 C3649 C 0.12945 0.75855 0.20794
 C3650 C 0.11896 0.73887 0.20333
 C3651 C 0.12898 0.71938 0.20968
 C3652 C 0.14983 0.71954 0.21999
 C3653 C 0.15950 0.69990 0.22620
 C3654 C 0.14891 0.68059 0.22230
 C3655 C 0.12863 0.68040 0.21205
 C3656 C 0.11869 0.69953 0.20578
 C3657 C 0.11961 0.77830 0.20235
 C3658 C 0.13006 0.79761 0.20666
 C3659 C 0.15045 0.79775 0.21659
 C3660 C 0.16054 0.77858 0.22228
 C3661 C 0.09826 0.73889 0.19130
 C3662 C 0.08139 0.74000 0.18082
 C3663 C 0.18279 0.73944 0.23178
 C3664 C 0.20143 0.74077 0.23736
 H3665 H 0.17527 0.69927 0.23420
 H3666 H 0.15652 0.66569 0.22718
 H3667 H 0.12053 0.66534 0.20897
 H3668 H 0.10287 0.69861 0.19795
 H3669 H 0.10375 0.77907 0.19463
 H3670 H 0.12228 0.81256 0.20228
 H3671 H 0.15850 0.81280 0.21991
 H3672 H 0.17638 0.77955 0.23005
   
