data_POSCAR
  _audit_creation_date              2014-09-24
  _audit_creation_method            'ToBaCCo'
  _symmetry_space_group_name_H-M    'P1'
  _symmetry_Int_Tables_number       1
  _symmetry_cell_setting            triclinic
  loop_
  _symmetry_equiv_pos_as_xyz
 x,y,z
_cell_length_a 62.5059
_cell_length_b 61.4856
_cell_length_c 61.0050
_cell_angle_alpha 91.705000
_cell_angle_beta 90.440300
_cell_angle_gamma 92.059500
loop_
  _atom_site_label
  _atom_site_type_symbol
  _atom_site_fract_x
  _atom_site_fract_y
  _atom_site_fract_z
C1 C 0.71857 0.66916 0.98998
 H2 H 0.73407 0.67736 0.99192
 C3 C 0.70101 0.68072 0.98288
 H4 H 0.70319 0.69780 0.97933
 C5 C 0.69676 0.63697 0.99217
 H6 H 0.69530 0.61984 0.99566
 C7 C 0.67885 0.64789 0.98548
 H8 H 0.66367 0.63893 0.98381
 N9 N 0.71615 0.64759 0.99413
 C10 C 0.77233 0.64249 1.03133
 H11 H 0.76402 0.63201 1.04258
 C12 C 0.79230 0.65154 1.03735
 H13 H 0.79878 0.64820 1.05337
 C14 C 0.77460 0.65844 0.99651
 H15 H 0.76787 0.66040 0.98033
 C16 C 0.79467 0.66809 1.00200
 H17 H 0.80320 0.67766 0.99005
 Zn18 Zn 0.73847 0.62977 1.00303
 N19 N 0.76391 0.64588 1.01115
 C20 C 0.76146 0.59656 0.98224
 N21 N 0.74526 0.61046 0.97962
 C22 C 0.73520 0.61208 0.95991
 C23 C 0.74155 0.59964 0.94178
 C24 C 0.76826 0.58371 0.96453
 C25 C 0.72050 0.62774 1.04395
 C26 C 0.71300 0.61888 1.06328
 C27 C 0.72104 0.58311 1.04872
 C28 C 0.72834 0.59278 1.02952
 N29 N 0.72820 0.61475 1.02768
 H30 H 0.76947 0.59590 0.99798
 H31 H 0.72267 0.62353 0.95799
 H32 H 0.73356 0.60154 0.92618
 H33 H 0.78148 0.57308 0.96685
 H34 H 0.72045 0.64516 1.04194
 H35 H 0.70719 0.62991 1.07587
 H36 H 0.72156 0.56559 1.04979
 H37 H 0.73426 0.58272 1.01624
 C38 C 0.80390 0.66427 1.02254
 C39 C 0.68083 0.67001 0.98051
 C40 C 0.71330 0.59620 1.06615
 C41 C 0.75848 0.58543 0.94386
 C42 C 0.73065 0.33325 0.51605
 H43 H 0.74568 0.33153 0.52463
 C44 C 0.71273 0.32039 0.52171
 H45 H 0.71426 0.30866 0.53447
 C46 C 0.71013 0.35151 0.49002
 H47 H 0.70893 0.36398 0.47803
 C48 C 0.69187 0.33906 0.49516
 H49 H 0.67697 0.34206 0.48680
 N50 N 0.72899 0.34873 0.50069
 C51 C 0.79294 0.36791 0.47788
 H52 H 0.79047 0.38509 0.47646
 C53 C 0.81202 0.35939 0.47052
 H54 H 0.82414 0.37036 0.46398
 C55 C 0.77957 0.33283 0.48690
 H56 H 0.76677 0.32246 0.49294
 C57 C 0.79851 0.32354 0.47963
 H58 H 0.80007 0.30610 0.48036
 Zn59 Zn 0.75211 0.36890 0.49530
 N60 N 0.77726 0.35474 0.48616
 C61 C 0.77363 0.40260 0.52036
 N62 N 0.75837 0.38630 0.52117
 C63 C 0.74807 0.38203 0.54024
 C64 C 0.75376 0.39356 0.55961
 C65 C 0.77970 0.41465 0.53930
 C66 C 0.74397 0.37766 0.45163
 C67 C 0.73752 0.38949 0.43375
 C68 C 0.73125 0.41999 0.45849
 C69 C 0.73796 0.40757 0.47594
 N70 N 0.74401 0.38677 0.47220
 H71 H 0.78122 0.40630 0.50504
 H72 H 0.73557 0.36949 0.54063
 H73 H 0.74565 0.38953 0.57465
 H74 H 0.79217 0.42725 0.53826
 H75 H 0.74876 0.36103 0.44918
 H76 H 0.73743 0.38178 0.41756
 H77 H 0.72625 0.43644 0.46181
 H78 H 0.73794 0.41439 0.49247
 C79 C 0.81509 0.33692 0.47136
 C80 C 0.69288 0.32354 0.51151
 C81 C 0.73086 0.41091 0.43706
 C82 C 0.77002 0.40990 0.55937
 C83 C 0.22986 -0.16361 0.00951
 H84 H 0.24531 -0.16527 0.01729
 C85 C 0.21193 -0.17533 0.01705
 H86 H 0.21380 -0.18612 0.03058
 C87 C 0.20859 -0.14673 -0.01693
 H88 H 0.20719 -0.13521 -0.02983
 C89 C 0.19029 -0.15804 -0.00990
 H90 H 0.17509 -0.15520 -0.01774
 N91 N 0.22785 -0.14953 -0.00710
 C92 C 0.29098 -0.13574 -0.03431
 H93 H 0.29027 -0.11818 -0.03414
 C94 C 0.30918 -0.14573 -0.04205
 H95 H 0.32238 -0.13567 -0.04793
 C96 C 0.27450 -0.16996 -0.02666
 H97 H 0.26092 -0.17927 -0.02059
 C98 C 0.29239 -0.18071 -0.03457
 H99 H 0.29249 -0.19831 -0.03440
 Zn100 Zn 0.25162 -0.13153 -0.01487
 N101 N 0.27435 -0.14783 -0.02630
 C102 C 0.28188 -0.11750 0.01750
 N103 N 0.26129 -0.11558 0.01069
 C104 C 0.24745 -0.10338 0.02248
 C105 C 0.25435 -0.09216 0.04173
 C106 C 0.28946 -0.10647 0.03640
 C107 C 0.24037 -0.12254 -0.05738
 C108 C 0.23399 -0.11050 -0.07511
 C109 C 0.23383 -0.07851 -0.05108
 C110 C 0.24053 -0.09122 -0.03385
 N111 N 0.24333 -0.11287 -0.03724
 H112 H 0.29252 -0.12783 0.00850
 H113 H 0.23101 -0.10248 0.01701
 H114 H 0.24315 -0.08249 0.05089
 H115 H 0.30593 -0.10836 0.04140
 H116 H 0.24284 -0.13979 -0.05962
 H117 H 0.23168 -0.11892 -0.09084
 H118 H 0.23144 -0.06136 -0.04776
 H119 H 0.24326 -0.08379 -0.01776
 C120 C 0.31018 -0.16849 -0.04203
 C121 C 0.19173 -0.17235 0.00752
 C122 C 0.23029 -0.08810 -0.07219
 C123 C 0.27568 -0.09359 0.04883
 C124 C 0.21911 0.15902 0.46506
 H125 H 0.23398 0.15762 0.45627
 C126 C 0.20295 0.17162 0.45667
 H127 H 0.20573 0.18014 0.44162
 C128 C 0.19694 0.14845 0.49449
 H129 H 0.19427 0.13886 0.50881
 C130 C 0.18048 0.16103 0.48683
 H131 H 0.16547 0.16104 0.49558
 N132 N 0.21571 0.14736 0.48341
 C133 C 0.27679 0.12813 0.51040
 H134 H 0.27156 0.11213 0.51544
 C135 C 0.29730 0.13602 0.51603
 H136 H 0.30770 0.12569 0.52503
 C137 C 0.26905 0.16121 0.49362
 H138 H 0.25792 0.17107 0.48510
 C139 C 0.28953 0.16985 0.49906
 H140 H 0.29396 0.18628 0.49450
 Zn141 Zn 0.23606 0.12694 0.49233
 N142 N 0.26322 0.14052 0.49905
 C143 C 0.25427 0.09012 0.47178
 N144 N 0.23941 0.10554 0.46944
 C145 C 0.22796 0.10668 0.45046
 C146 C 0.23241 0.09312 0.43242
 C147 C 0.25908 0.07608 0.45424
 C148 C 0.22620 0.12704 0.53650
 C149 C 0.21962 0.11887 0.55650
 C150 C 0.21422 0.08337 0.53882
 C151 C 0.22075 0.09231 0.51903
 N152 N 0.22650 0.11382 0.51827
 H153 H 0.26286 0.08899 0.48707
 H154 H 0.21569 0.11845 0.44898
 H155 H 0.22364 0.09488 0.41724
 H156 H 0.27152 0.06449 0.45629
 H157 H 0.23101 0.14405 0.53540
 H158 H 0.21944 0.12978 0.57075
 H159 H 0.20958 0.06624 0.53914
 H160 H 0.22116 0.08211 0.50431
 C161 C 0.30402 0.15710 0.51028
 C162 C 0.18315 0.17239 0.46737
 C163 C 0.21351 0.09676 0.55788
 C164 C 0.24855 0.07795 0.43401
 C165 C 0.16422 0.48338 0.22603
 H166 H 0.16551 0.47673 0.24220
 C167 C 0.17560 0.47435 0.20856
 H168 H 0.18578 0.46084 0.21152
 C169 C 0.14855 0.50839 0.20245
 H170 H 0.13758 0.52129 0.19997
 C171 C 0.15952 0.49980 0.18454
 H172 H 0.15705 0.50650 0.16854
 N173 N 0.15097 0.50005 0.22268
 C174 C 0.13797 0.53017 0.28653
 H175 H 0.12078 0.53073 0.28458
 C176 C 0.14766 0.53770 0.30605
 H177 H 0.13777 0.54422 0.31899
 C178 C 0.17151 0.52062 0.27192
 H179 H 0.18066 0.51384 0.25858
 C180 C 0.18196 0.52830 0.29119
 H181 H 0.19917 0.52727 0.29256
 Zn182 Zn 0.13356 0.50984 0.24594
 N183 N 0.14982 0.52127 0.27021
 C184 C 0.11885 0.47915 0.27605
 N185 N 0.11646 0.48567 0.25510
 C186 C 0.10324 0.47433 0.24067
 C187 C 0.09154 0.45583 0.24733
 C188 C 0.10740 0.46103 0.28340
 C189 C 0.12788 0.55173 0.23278
 C190 C 0.11723 0.57007 0.22644
 C191 C 0.08377 0.54923 0.22789
 C192 C 0.09510 0.53127 0.23444
 N193 N 0.11678 0.53282 0.23653
 H194 H 0.12999 0.48768 0.28713
 H195 H 0.10198 0.47953 0.22394
 H196 H 0.08113 0.44697 0.23565
 H197 H 0.10977 0.45626 0.30016
 H198 H 0.14510 0.55253 0.23481
 H199 H 0.12649 0.58490 0.22347
 H200 H 0.06652 0.54773 0.22620
 H201 H 0.08656 0.51618 0.23789
 C202 C 0.16990 0.53656 0.30871
 C203 C 0.17308 0.48237 0.18739
 C204 C 0.09489 0.56898 0.22383
 C205 C 0.09354 0.44903 0.26902
 C206 C -0.15849 0.01639 0.22766
 H207 H -0.15961 0.02343 0.24406
 C208 C -0.17092 0.02427 0.21066
 H209 H -0.18171 0.03725 0.21435
 C210 C -0.14225 -0.00836 0.20301
 H211 H -0.13061 -0.02059 0.19987
 C212 C -0.15423 -0.00095 0.18556
 H213 H -0.15174 -0.00805 0.16936
 N214 N -0.14447 0.00038 0.22356
 C215 C -0.12743 -0.02629 0.28648
 H216 H -0.11030 -0.02603 0.28403
 C217 C -0.13597 -0.03429 0.30576
 H218 H -0.12517 -0.04018 0.31802
 C219 C -0.16203 -0.01877 0.27320
 H220 H -0.17208 -0.01282 0.26037
 C221 C -0.17132 -0.02664 0.29239
 H222 H -0.18854 -0.02660 0.29416
 Zn223 Zn -0.12564 -0.00785 0.24611
 N224 N -0.14040 -0.01852 0.27079
 C225 C -0.11263 0.02633 0.27507
 N226 N -0.10898 0.01734 0.25487
 C227 C -0.09568 0.02746 0.24050
 C228 C -0.08546 0.04750 0.24632
 C229 C -0.10304 0.04633 0.28141
 C230 C -0.12041 -0.04963 0.23067
 C231 C -0.11036 -0.06789 0.22234
 C232 C -0.07646 -0.04779 0.22507
 C233 C -0.08726 -0.02974 0.23332
 N234 N -0.10891 -0.03093 0.23560
 H235 H -0.12370 0.01847 0.28606
 H236 H -0.09347 0.02029 0.22431
 H237 H -0.07524 0.05556 0.23458
 H238 H -0.10656 0.05329 0.29743
 H239 H -0.13756 -0.05019 0.23295
 H240 H -0.12001 -0.08246 0.21832
 H241 H -0.05927 -0.04653 0.22306
 H242 H -0.07837 -0.01484 0.23777
 C243 C -0.15818 -0.03444 0.30904
 C244 C -0.16864 0.01585 0.18910
 C245 C -0.08811 -0.06712 0.21923
 C246 C -0.08947 0.05734 0.26689
 C247 C 0.34757 0.51208 0.72848
 H248 H 0.34774 0.51921 0.74491
 C249 C 0.33547 0.52129 0.71196
 H250 H 0.32623 0.53542 0.71592
 C251 C 0.36032 0.48572 0.70316
 H252 H 0.37046 0.47228 0.69952
 C253 C 0.34859 0.49442 0.68621
 H254 H 0.34967 0.48720 0.66987
 N255 N 0.35968 0.49462 0.72382
 C256 C 0.37500 0.46228 0.78431
 H257 H 0.39174 0.45989 0.78094
 C258 C 0.36603 0.45432 0.80342
 H259 H 0.37606 0.44576 0.81458
 C260 C 0.34189 0.47650 0.77368
 H261 H 0.33256 0.48508 0.76197
 C262 C 0.33220 0.46880 0.79273
 H263 H 0.31543 0.47162 0.79551
 Zn264 Zn 0.37819 0.48412 0.74558
 N265 N 0.36305 0.47344 0.77008
 C266 C 0.39868 0.51286 0.77663
 N267 N 0.39706 0.50748 0.75489
 C268 C 0.40746 0.51960 0.73968
 C269 C 0.41984 0.53815 0.74619
 C270 C 0.41109 0.53097 0.78384
 C271 C 0.38124 0.44217 0.72868
 C272 C 0.39066 0.42378 0.71976
 C273 C 0.42504 0.44304 0.72198
 C274 C 0.41487 0.46122 0.73079
 N275 N 0.39330 0.46048 0.73371
 H276 H 0.38999 0.50344 0.78850
 H277 H 0.40567 0.51514 0.72246
 H278 H 0.42770 0.54783 0.73387
 H279 H 0.41182 0.53501 0.80123
 H280 H 0.36416 0.44198 0.73146
 H281 H 0.38062 0.40948 0.71575
 H282 H 0.44218 0.44393 0.71957
 H283 H 0.42417 0.47588 0.73522
 C284 C 0.34440 0.45773 0.80802
 C285 C 0.33613 0.51260 0.69041
 C286 C 0.41284 0.42404 0.71619
 C287 C 0.42165 0.54409 0.76856
 C288 C 0.65861 0.97531 0.72566
 H289 H 0.65971 0.96841 0.74172
 C290 C 0.67048 0.96680 0.70827
 H291 H 0.68082 0.95341 0.71118
 C292 C 0.64301 1.00050 0.70223
 H293 H 0.63191 1.01328 0.69975
 C294 C 0.65446 0.99244 0.68441
 H295 H 0.65218 0.99940 0.66851
 N296 N 0.64515 0.99181 0.72234
 C297 C 0.63055 1.02123 0.78620
 H298 H 0.61334 1.02123 0.78420
 C299 C 0.63998 1.02932 0.80565
 H300 H 0.62970 1.03556 0.81840
 C301 C 0.66441 1.01285 0.77169
 H302 H 0.67380 1.00639 0.75837
 C303 C 0.67464 1.02120 0.79082
 H304 H 0.69193 1.02093 0.79195
 Zn305 Zn 0.62706 1.00103 0.74530
 N306 N 0.64270 1.01266 0.76996
 C307 C 0.61119 0.97038 0.77500
 N308 N 0.61004 0.97652 0.75381
 C309 C 0.59799 0.96467 0.73872
 C310 C 0.58623 0.94601 0.74490
 C311 C 0.59951 0.95221 0.78192
 C312 C 0.62103 1.04301 0.73273
 C313 C 0.61037 1.06113 0.72585
 C314 C 0.57735 1.03942 0.72479
 C315 C 0.58867 1.02168 0.73196
 N316 N 0.61016 1.02377 0.73553
 H317 H 0.62144 0.97929 0.78666
 H318 H 0.59769 0.96958 0.72184
 H319 H 0.57672 0.93674 0.73275
 H320 H 0.60079 0.94775 0.79890
 H321 H 0.63810 1.04422 0.73584
 H322 H 0.61947 1.07621 0.72360
 H323 H 0.56027 1.03749 0.72184
 H324 H 0.58031 1.00630 0.73457
 C325 C 0.66236 1.02924 0.80838
 C326 C 0.66823 0.97518 0.68721
 C327 C 0.58826 1.05949 0.72164
 C328 C 0.58682 0.93973 0.76684
 C329 C 0.01938 0.24114 -0.14276
 H330 H 0.02775 0.25686 -0.14213
 C331 C 0.02782 0.22381 -0.15473
 H332 H 0.04267 0.22643 -0.16347
 C333 C -0.00969 0.21855 -0.13127
 H334 H -0.02399 0.21641 -0.12164
 C335 C -0.00190 0.20081 -0.14318
 H336 H -0.01047 0.18522 -0.14265
 N337 N 0.00111 0.23816 -0.13112
 C338 C -0.02312 0.30249 -0.11697
 H339 H -0.02322 0.30214 -0.09925
 C340 C -0.02999 0.32079 -0.12755
 H341 H -0.03542 0.33448 -0.11779
 C342 C -0.01613 0.28476 -0.15107
 H343 H -0.01082 0.27059 -0.16011
 C344 C -0.02317 0.30268 -0.16237
 H345 H -0.02307 0.30220 -0.18013
 Zn346 Zn -0.00722 0.26129 -0.11241
 N347 N -0.01608 0.28510 -0.12876
 C348 C 0.02645 0.28989 -0.09826
 N349 N 0.01715 0.26992 -0.09503
 C350 C 0.02664 0.25538 -0.08202
 C351 C 0.04635 0.26074 -0.07176
 C352 C 0.04615 0.29577 -0.08861
 C353 C -0.04972 0.24998 -0.10708
 C354 C -0.06844 0.24276 -0.09697
 C355 C -0.04840 0.23984 -0.06320
 C356 C -0.03005 0.24752 -0.07399
 N357 N -0.03101 0.25204 -0.09565
 H358 H 0.01919 0.30101 -0.10920
 H359 H 0.01934 0.23932 -0.08029
 H360 H 0.05396 0.24880 -0.06192
 H361 H 0.05344 0.31158 -0.09190
 H362 H -0.05003 0.25379 -0.12428
 H363 H -0.08294 0.24122 -0.10681
 H364 H -0.04705 0.23604 -0.04603
 H365 H -0.01507 0.24957 -0.06510
 C366 C -0.03007 0.32107 -0.15055
 C367 C 0.01734 0.20321 -0.15475
 C368 C -0.06807 0.23717 -0.07471
 C369 C 0.05655 0.28101 -0.07546
 C370 C 0.47527 0.22744 0.16955
 H371 H 0.46778 0.24304 0.17006
 C372 C 0.46640 0.21011 0.18124
 H373 H 0.45216 0.21259 0.19084
 C374 C 0.50233 0.20502 0.15555
 H375 H 0.51600 0.20285 0.14512
 C376 C 0.49405 0.18734 0.16692
 H377 H 0.50174 0.17188 0.16521
 N378 N 0.49284 0.22457 0.15692
 C379 C 0.52481 0.28656 0.14311
 H380 H 0.52723 0.28325 0.12581
 C381 C 0.53247 0.30616 0.15266
 H382 H 0.54093 0.31770 0.14249
 C383 C 0.51045 0.27540 0.17699
 H384 H 0.50174 0.26337 0.18631
 C385 C 0.51791 0.29494 0.18729
 H386 H 0.51487 0.29777 0.20457
 Zn387 Zn 0.50292 0.24714 0.13876
 N388 N 0.51370 0.27183 0.15516
 C389 C 0.47465 0.27694 0.12182
 N390 N 0.47982 0.25565 0.12092
 C391 C 0.46799 0.24070 0.10863
 C392 C 0.45021 0.24709 0.09656
 C393 C 0.45732 0.28402 0.10991
 C394 C 0.54462 0.23502 0.13302
 C395 C 0.56296 0.22855 0.12220
 C396 C 0.54281 0.22662 0.08819
 C397 C 0.52479 0.23337 0.09970
 N398 N 0.52603 0.23725 0.12175
 H399 H 0.48370 0.28857 0.13207
 H400 H 0.47219 0.22378 0.10846
 H401 H 0.44088 0.23501 0.08696
 H402 H 0.45359 0.30108 0.11113
 H403 H 0.54516 0.23838 0.15053
 H404 H 0.57753 0.22686 0.13161
 H405 H 0.54158 0.22354 0.07065
 H406 H 0.50991 0.23553 0.09103
 C407 C 0.52884 0.31075 0.17497
 C408 C 0.47566 0.18961 0.17974
 C409 C 0.56224 0.22419 0.09948
 C410 C 0.44472 0.26907 0.09713
 C411 C 0.97745 0.73092 0.66885
 H412 H 0.96993 0.74650 0.66943
 C413 C 0.96873 0.71356 0.68061
 H414 H 0.95457 0.71601 0.69036
 C415 C 1.00442 0.70854 0.65458
 H416 H 1.01800 0.70639 0.64401
 C417 C 0.99627 0.69084 0.66599
 H418 H 1.00398 0.67540 0.66420
 N419 N 0.99493 0.72808 0.65607
 C420 C 1.02633 0.79036 0.64212
 H421 H 1.02890 0.78694 0.62486
 C422 C 1.03361 0.81016 0.65152
 H423 H 1.04195 0.82173 0.64130
 C424 C 1.01195 0.77928 0.67601
 H425 H 1.00339 0.76720 0.68540
 C426 C 1.01905 0.79902 0.68618
 H427 H 1.01586 0.80196 0.70341
 Zn428 Zn 1.00497 0.75066 0.63791
 N429 N 1.01536 0.77558 0.65423
 C430 C 0.97653 0.78003 0.62055
 N431 N 0.98198 0.75882 0.61971
 C432 C 0.97050 0.74374 0.60724
 C433 C 0.95280 0.74991 0.59490
 C434 C 0.95929 0.78690 0.60837
 C435 C 1.04680 0.73886 0.63294
 C436 C 1.06534 0.73234 0.62253
 C437 C 1.04577 0.72998 0.58817
 C438 C 1.02754 0.73679 0.59927
 N439 N 1.02839 0.74090 0.62131
 H440 H 0.98527 0.79176 0.63095
 H441 H 0.97490 0.72688 0.60713
 H442 H 0.94374 0.73773 0.58516
 H443 H 0.95534 0.80390 0.60954
 H444 H 1.04702 0.74237 0.65042
 H445 H 1.07974 0.73078 0.63224
 H446 H 1.04485 0.72668 0.57065
 H447 H 1.01279 0.73878 0.59032
 C448 C 1.02975 0.81490 0.67376
 C449 C 0.97801 0.69308 0.67900
 C450 C 1.06501 0.72772 0.59986
 C451 C 0.94706 0.77182 0.59539
 C452 C 0.51981 0.73963 0.35178
 H453 H 0.52821 0.75530 0.35137
 C454 C 0.52766 0.72181 0.34008
 H455 H 0.54205 0.72401 0.33050
 C456 C 0.49146 0.71761 0.36574
 H457 H 0.47776 0.71587 0.37631
 C458 C 0.49865 0.69939 0.35414
 H459 H 0.49021 0.68385 0.35581
 N460 N 0.50223 0.73716 0.36457
 C461 C 0.48048 0.80250 0.37902
 H462 H 0.48181 0.80249 0.39671
 C463 C 0.47306 0.82073 0.36873
 H464 H 0.46879 0.83465 0.37885
 C465 C 0.48433 0.78394 0.34477
 H466 H 0.48858 0.76945 0.33558
 C467 C 0.47664 0.80176 0.33374
 H468 H 0.47524 0.80071 0.31604
 Zn469 Zn 0.49527 0.76091 0.38320
 N470 N 0.48614 0.78470 0.36700
 C471 C 0.53045 0.78861 0.39509
 N472 N 0.52050 0.76916 0.39930
 C473 C 0.52970 0.75476 0.41269
 C474 C 0.54963 0.75982 0.42256
 C475 C 0.55042 0.79416 0.40431
 C476 C 0.45305 0.74986 0.39074
 C477 C 0.43471 0.74368 0.40213
 C478 C 0.45590 0.74359 0.43542
 C479 C 0.47388 0.75010 0.42338
 N480 N 0.47216 0.75274 0.40137
 H481 H 0.52337 0.79955 0.38383
 H482 H 0.52184 0.73908 0.41519
 H483 H 0.55690 0.74804 0.43287
 H484 H 0.55816 0.80958 0.40038
 H485 H 0.45213 0.75223 0.37327
 H486 H 0.41974 0.74125 0.39318
 H487 H 0.45754 0.74128 0.45287
 H488 H 0.48913 0.75290 0.43161
 C489 C 0.47088 0.82059 0.34574
 C490 C 0.51728 0.70125 0.34151
 C491 C 0.43600 0.74024 0.42473
 C492 C 0.56039 0.77961 0.41806
 Si493 Si 0.36396 -0.00307 0.25126
 Si494 Si 0.12323 1.01657 0.75686
 Si495 Si 0.62303 0.51142 0.26087
 Si496 Si 0.86775 0.50172 0.75628
 Si497 Si 0.25971 0.36413 0.00356
 Si498 Si 0.74698 0.12672 1.00719
 Si499 Si 0.25177 0.63032 0.51130
 Si500 Si 0.76072 0.86430 0.50193
 Si501 Si -0.00129 0.25616 0.36080
 Si502 Si 1.00291 0.74532 0.11432
 Si503 Si 0.50084 0.23651 0.60827
 Si504 Si 0.50076 0.74688 0.86454
 C505 C 0.44626 -0.12651 0.31539
 N506 N 0.45085 -0.14475 0.30350
 N507 N 0.45904 -0.16176 0.31321
 C508 C 0.46281 -0.16130 0.33522
 N509 N 0.45824 -0.14293 0.34699
 N510 N 0.45019 -0.12590 0.33728
 C511 C 0.43651 -0.10796 0.30503
 N512 N 0.43373 -0.08918 0.31676
 N513 N 0.42408 -0.07261 0.30780
 C514 C 0.41674 -0.07423 0.28680
 N515 N 0.41961 -0.09298 0.27500
 N516 N 0.42938 -0.10953 0.28394
 C517 C 0.40500 -0.05639 0.27743
 N518 N 0.39479 -0.05913 0.25776
 N519 N 0.38314 -0.04336 0.24989
 C520 C 0.38135 -0.02428 0.26136
 N521 N 0.39173 -0.02141 0.28088
 N522 N 0.40332 -0.03721 0.28881
 C523 C 0.94751 0.37565 0.81788
 N524 N 0.94950 0.35647 0.80657
 N525 N 0.95690 0.33918 0.81647
 C526 C 0.96244 0.34038 0.83808
 N527 N 0.96051 0.35962 0.84928
 N528 N 0.95323 0.37691 0.83938
 C529 C 0.93850 0.39453 0.80742
 N530 N 0.93801 0.41398 0.81850
 N531 N 0.92888 0.43088 0.80960
 C532 C 0.91981 0.42895 0.78932
 N533 N 0.92042 0.40954 0.77816
 N534 N 0.92965 0.39264 0.78703
 C535 C 0.90847 0.44721 0.78024
 N536 N 0.89670 0.44447 0.76150
 N537 N 0.88522 0.46062 0.75413
 C538 C 0.88520 0.48008 0.76520
 N539 N 0.89719 0.48295 0.78374
 N540 N 0.90860 0.46678 0.79116
 C541 C 0.04590 1.14862 0.81675
 N542 N 0.05690 1.16801 0.81882
 N543 N 0.04765 1.18543 0.82744
 C544 C 0.02707 1.18414 0.83438
 N545 N 0.01604 1.16473 0.83217
 N546 N 0.02526 1.14730 0.82346
 C547 C 0.05651 1.12930 0.80806
 N548 N 0.04537 1.11015 0.80431
 N549 N 0.05525 1.09259 0.79682
 C550 C 0.07663 1.09354 0.79298
 N551 N 0.08772 1.11268 0.79673
 N552 N 0.07784 1.13024 0.80410
 C553 C 0.08775 1.07432 0.78482
 N554 N 0.10939 1.07508 0.78320
 N555 N 0.11965 1.05794 0.77541
 C556 C 0.10864 1.03946 0.76891
 N557 N 0.08700 1.03858 0.77057
 N558 N 0.07671 1.05572 0.77847
 C559 C 0.54510 0.64531 0.31501
 N560 N 0.52459 0.64440 0.32219
 N561 N 0.51558 0.66225 0.33020
 C562 C 0.52666 0.68170 0.33122
 N563 N 0.54708 0.68257 0.32376
 N564 N 0.55613 0.66473 0.31585
 C565 C 0.55561 0.62556 0.30728
 N566 N 0.57699 0.62618 0.30358
 N567 N 0.58683 0.60828 0.29715
 C568 C 0.57568 0.58908 0.29409
 N569 N 0.55424 0.58842 0.29768
 N570 N 0.54440 0.60634 0.30426
 C571 C 0.58684 0.56954 0.28690
 N572 N 0.57589 0.55091 0.28044
 N573 N 0.58632 0.53358 0.27321
 C574 C 0.60803 0.53430 0.27237
 N575 N 0.61893 0.55279 0.27904
 N576 N 0.60854 0.57010 0.28614
 C577 C 0.54940 0.37162 0.20207
 N578 N 0.55132 0.36698 0.18033
 N579 N 0.54481 0.34766 0.17190
 C580 C 0.53611 0.33212 0.18481
 N581 N 0.53413 0.33678 0.20663
 N582 N 0.54070 0.35616 0.21512
 C583 C 0.55720 0.39290 0.21104
 N584 N 0.55668 0.39783 0.23289
 N585 N 0.56467 0.41695 0.24075
 C586 C 0.57338 0.43179 0.22702
 N587 N 0.57369 0.42688 0.20521
 N588 N 0.56574 0.40783 0.19738
 C589 C 0.58362 0.45227 0.23545
 N590 N 0.59383 0.46577 0.22143
 N591 N 0.60462 0.48354 0.22891
 C592 C 0.60549 0.48854 0.25068
 N593 N 0.59505 0.47527 0.26476
 N594 N 0.58428 0.45741 0.25727
 C595 C 0.04916 0.87638 0.70025
 N596 N 0.04129 0.86071 0.71355
 N597 N 0.03505 0.84114 0.70526
 C598 C 0.03656 0.83650 0.68339
 N599 N 0.04440 0.85226 0.67022
 N600 N 0.05056 0.87176 0.67846
 C601 C 0.05670 0.89785 0.70897
 N602 N 0.06438 0.91297 0.69502
 N603 N 0.07223 0.93216 0.70260
 C604 C 0.07267 0.93702 0.72444
 N605 N 0.06479 0.92198 0.73845
 N606 N 0.05692 0.90273 0.73084
 C607 C 0.08294 0.95759 0.73256
 N608 N 0.08435 0.96265 0.75437
 N609 N 0.09530 0.98052 0.76155
 C610 C 0.10518 0.99389 0.74716
 N611 N 0.10355 0.98898 0.72541
 N612 N 0.09257 0.97120 0.71823
 C613 C 0.94947 0.63803 0.70756
 N614 N 0.94197 0.65814 0.71200
 N615 N 0.95118 0.67571 0.70323
 C616 C 0.96828 0.67384 0.68974
 N617 N 0.97582 0.65370 0.68553
 N618 N 0.96660 0.63616 0.69422
 C619 C 0.93881 0.61846 0.71622
 N620 N 0.94502 0.59839 0.70962
 N621 N 0.93491 0.58053 0.71669
 C622 C 0.91825 0.58208 0.73071
 N623 N 0.91212 0.60214 0.73747
 N624 N 0.92219 0.62002 0.73032
 C625 C 0.90658 0.56236 0.73776
 N626 N 0.89071 0.56369 0.75276
 N627 N 0.87964 0.54586 0.75851
 C628 C 0.88400 0.52614 0.74942
 N629 N 0.89989 0.52476 0.73450
 N630 N 0.91103 0.54256 0.72881
 C631 C 0.44661 0.13455 0.20780
 N632 N 0.46445 0.13281 0.19547
 N633 N 0.47383 0.15036 0.18696
 C634 C 0.46576 0.17039 0.19039
 N635 N 0.44797 0.17214 0.20291
 N636 N 0.43857 0.15456 0.21147
 C637 C 0.43575 0.11490 0.21609
 N638 N 0.41815 0.11627 0.22891
 N639 N 0.40788 0.09828 0.23555
 C640 C 0.41481 0.07830 0.22953
 N641 N 0.43246 0.07696 0.21682
 N642 N 0.44275 0.09492 0.21026
 C643 C 0.40297 0.05841 0.23582
 N644 N 0.40847 0.03871 0.22741
 N645 N 0.39724 0.02070 0.23227
 C646 C 0.38018 0.02174 0.24579
 N647 N 0.37474 0.04137 0.25437
 N648 N 0.38593 0.05941 0.24944
 C649 C 0.31850 0.43564 -0.13294
 N650 N 0.33928 0.43255 -0.13799
 N651 N 0.34735 0.43953 -0.15672
 C652 C 0.33502 0.44989 -0.17125
 N653 N 0.31417 0.45301 -0.16618
 N654 N 0.30605 0.44600 -0.14738
 C655 C 0.30986 0.42749 -0.11228
 N656 N 0.28904 0.42996 -0.10677
 N657 N 0.28138 0.42192 -0.08820
 C658 C 0.29428 0.41116 -0.07450
 N659 N 0.31508 0.40882 -0.08000
 N660 N 0.32272 0.41685 -0.09850
 C661 C 0.28591 0.40119 -0.05456
 N662 N 0.29881 0.38901 -0.04227
 N663 N 0.29120 0.37880 -0.02489
 C664 C 0.27044 0.38048 -0.01907
 N665 N 0.25752 0.39287 -0.03114
 N666 N 0.26513 0.40306 -0.04861
 C667 C 0.81678 0.94191 0.36783
 N668 N 0.83804 0.94152 0.36368
 N669 N 0.84585 0.94907 0.34505
 C670 C 0.83276 0.95727 0.32973
 N671 N 0.81143 0.95768 0.33389
 N672 N 0.80358 0.95013 0.35259
 C673 C 0.80844 0.93302 0.38830
 N674 N 0.78728 0.93339 0.39317
 N675 N 0.77993 0.92462 0.41153
 C676 C 0.79349 0.91520 0.42562
 N677 N 0.81463 0.91497 0.42076
 N678 N 0.82196 0.92375 0.40249
 C679 C 0.78552 0.90431 0.44522
 N680 N 0.79901 0.89268 0.45742
 N681 N 0.79179 0.88159 0.47442
 C682 C 0.77084 0.88183 0.47994
 N683 N 0.75734 0.89368 0.46798
 N684 N 0.76455 0.90473 0.45088
 C685 C 0.80074 0.04259 1.13666
 N686 N 0.81428 0.02607 1.13348
 N687 N 0.82381 0.01720 1.15046
 C688 C 0.82031 0.02452 1.17134
 N689 N 0.80654 0.04095 1.17446
 N690 N 0.79693 0.04979 1.15747
 C691 C 0.79123 0.05312 1.11779
 N692 N 0.77685 0.06895 1.12075
 N693 N 0.76901 0.07913 1.10363
 C694 C 0.77534 0.07392 1.08294
 N695 N 0.78963 0.05802 1.07998
 N696 N 0.79740 0.04778 1.09709
 C697 C 0.76757 0.08592 1.06418
 N698 N 0.77613 0.08286 1.04397
 N699 N 0.76982 0.09450 1.02718
 C700 C 0.75465 0.10953 1.02999
 N701 N 0.74593 0.11247 1.05010
 N702 N 0.75230 0.10090 1.06692
 C703 C 0.30598 0.54285 0.63828
 N704 N 0.31937 0.52631 0.63445
 N705 N 0.32860 0.51653 0.65104
 C706 C 0.32490 0.52291 0.67214
 N707 N 0.31139 0.53942 0.67596
 N708 N 0.30207 0.54917 0.65935
 C709 C 0.29664 0.55418 0.61984
 N710 N 0.28224 0.56991 0.62331
 N711 N 0.27442 0.58064 0.60654
 C712 C 0.28078 0.57609 0.58571
 N713 N 0.29511 0.56031 0.58225
 N714 N 0.30286 0.54953 0.59900
 C715 C 0.27292 0.58855 0.56731
 N716 N 0.28152 0.58606 0.54704
 N717 N 0.27506 0.59801 0.53054
 C718 C 0.25969 0.61276 0.53371
 N719 N 0.25095 0.61515 0.55388
 N720 N 0.25748 0.60327 0.57042
 C721 C 0.19797 0.55686 0.36894
 N722 N 0.17675 0.55159 0.36738
 N723 N 0.16797 0.54512 0.34825
 C724 C 0.18003 0.54355 0.32989
 N725 N 0.20135 0.54863 0.33148
 N726 N 0.21014 0.55527 0.35064
 C727 C 0.20722 0.56485 0.39000
 N728 N 0.22733 0.57394 0.39121
 N729 N 0.23511 0.58225 0.41019
 C730 C 0.22312 0.58164 0.42866
 N731 N 0.20312 0.57232 0.42748
 N732 N 0.19530 0.56413 0.40849
 C733 C 0.23104 0.59205 0.44927
 N734 N 0.21953 0.59029 0.46798
 N735 N 0.22595 0.60093 0.48635
 C736 C 0.24403 0.61379 0.48661
 N737 N 0.25567 0.61540 0.46801
 N738 N 0.24932 0.60468 0.44967
 C739 C 0.69001 0.05147 0.86691
 N740 N 0.66843 0.04969 0.86453
 N741 N 0.65961 0.04262 0.84560
 C742 C 0.67194 0.03687 0.82825
 N743 N 0.69361 0.03856 0.83075
 N744 N 0.70246 0.04584 0.84966
 C745 C 0.69945 0.05981 0.88776
 N746 N 0.72039 0.06645 0.88917
 N747 N 0.72851 0.07498 0.90794
 C748 C 0.71605 0.07698 0.92597
 N749 N 0.69520 0.07010 0.92460
 N750 N 0.68705 0.06174 0.90582
 C751 C 0.72450 0.08755 0.94631
 N752 N 0.71274 0.08732 0.96492
 N753 N 0.71968 0.09816 0.98299
 C754 C 0.73856 0.10972 0.98301
 N755 N 0.75045 0.10979 0.96450
 N756 N 0.74358 0.09883 0.94647
 C757 C 0.69836 0.94651 0.63284
 N758 N 0.70336 0.94068 0.65350
 N759 N 0.69401 0.94994 0.67079
 C760 C 0.67934 0.96545 0.66810
 N761 N 0.67450 0.97135 0.64740
 N762 N 0.68380 0.96206 0.63011
 C763 C 0.70810 0.93577 0.61374
 N764 N 0.70158 0.94007 0.59307
 N765 N 0.70999 0.92986 0.57577
 C766 C 0.72527 0.91501 0.57852
 N767 N 0.73186 0.91080 0.59918
 N768 N 0.72341 0.92096 0.61647
 C769 C 0.73425 0.90329 0.55958
 N770 N 0.75020 0.88924 0.56252
 N771 N 0.75806 0.87813 0.54553
 C772 C 0.75026 0.88064 0.52500
 N773 N 0.73433 0.89469 0.52198
 N774 N 0.72648 0.90586 0.53899
 C775 C 0.20166 0.45194 0.13304
 N776 N 0.18722 0.46760 0.13023
 N777 N 0.17843 0.47747 0.14750
 C778 C 0.18366 0.47205 0.16826
 N779 N 0.19820 0.45643 0.17101
 N780 N 0.20705 0.44660 0.15375
 C781 C 0.21083 0.44051 0.11402
 N782 N 0.22592 0.42550 0.11688
 N783 N 0.23383 0.41466 0.09973
 C784 C 0.22690 0.41837 0.07907
 N785 N 0.21184 0.43342 0.07617
 N786 N 0.20397 0.44432 0.09334
 C787 C 0.23526 0.40584 0.06033
 N788 N 0.22727 0.40798 0.03975
 N789 N 0.23454 0.39603 0.02298
 C790 C 0.25009 0.38160 0.02623
 N791 N 0.25811 0.37952 0.04674
 N792 N 0.25084 0.39141 0.06348
 C793 C -0.12795 0.31162 0.44693
 N794 N -0.14353 0.29807 0.45481
 N795 N -0.16157 0.30602 0.46278
 C796 C -0.16472 0.32781 0.46313
 N797 N -0.14902 0.34125 0.45535
 N798 N -0.13104 0.33334 0.44741
 C799 C -0.10836 0.30318 0.43719
 N800 N -0.09382 0.31714 0.42823
 N801 N -0.07649 0.30975 0.41839
 C802 C -0.07295 0.28812 0.41718
 N803 N -0.08737 0.27410 0.42633
 N804 N -0.10479 0.28150 0.43616
 C805 C -0.05447 0.28019 0.40496
 N806 N -0.05012 0.25869 0.40388
 N807 N -0.03407 0.25163 0.39158
 C808 C -0.02191 0.26582 0.37992
 N809 N -0.02614 0.28728 0.38117
 N810 N -0.04207 0.29434 0.39351
 C811 C 0.36631 0.80229 0.93673
 N812 N 0.34768 0.79031 0.93780
 N813 N 0.32981 0.79946 0.94471
 C814 C 0.32989 0.82096 0.95060
 N815 N 0.34858 0.83283 0.94953
 N816 N 0.36642 0.82368 0.94278
 C817 C 0.38602 0.79268 0.92860
 N818 N 0.40480 0.80445 0.92972
 N819 N 0.42261 0.79637 0.92152
 C820 C 0.42231 0.77623 0.91179
 N821 N 0.40355 0.76435 0.91078
 N822 N 0.38572 0.77241 0.91909
 C823 C 0.44175 0.76807 0.90155
 N824 N 0.44103 0.74945 0.88897
 N825 N 0.45843 0.74292 0.87855
 C826 C 0.47715 0.75472 0.88042
 N827 N 0.47796 0.77316 0.89318
 N828 N 0.46056 0.77974 0.90353
 C829 C 1.13604 0.79874 0.03370
 N830 N 1.13476 0.81330 0.01751
 N831 N 1.15246 0.82215 0.00897
 C832 C 1.17214 0.81685 0.01629
 N833 N 1.17336 0.80215 0.03241
 N834 N 1.15566 0.79324 0.04093
 C835 C 1.11651 0.78974 0.04380
 N836 N 1.11775 0.77478 0.05963
 N837 N 1.10011 0.76724 0.06939
 C838 C 1.08059 0.77442 0.06373
 N839 N 1.07933 0.78931 0.04783
 N840 N 1.09697 0.79681 0.03802
 C841 C 1.06132 0.76671 0.07522
 N842 N 1.04194 0.77513 0.07107
 N843 N 1.02469 0.76868 0.08222
 C844 C 1.02626 0.75356 0.09784
 N845 N 1.04555 0.74504 0.10186
 N846 N 1.06278 0.75150 0.09077
 C847 C 0.63649 0.29254 0.53378
 N848 N 0.65590 0.28690 0.54150
 N849 N 0.67384 0.29640 0.53414
 C850 C 0.67310 0.31186 0.51872
 N851 N 0.65365 0.31727 0.51086
 N852 N 0.63571 0.30783 0.51825
 C853 C 0.61665 0.28306 0.54280
 N854 N 0.59730 0.29038 0.53670
 N855 N 0.57935 0.28252 0.54565
 C856 C 0.58009 0.26701 0.56099
 N857 N 0.59942 0.25958 0.56696
 N858 N 0.61737 0.26747 0.55806
 C859 C 0.56045 0.25895 0.57161
 N860 N 0.56137 0.24313 0.58659
 N861 N 0.54380 0.23636 0.59694
 C862 C 0.52468 0.24517 0.59273
 N863 N 0.52365 0.26090 0.57767
 N864 N 0.54125 0.26767 0.56726
 C865 C 0.36568 0.18045 0.52892
 N866 N 0.35949 0.15936 0.53161
 N867 N 0.34002 0.15203 0.52548
 C868 C 0.32587 0.16547 0.51640
 N869 N 0.33214 0.18660 0.51352
 N870 N 0.35167 0.19398 0.51971
 C871 C 0.38686 0.18842 0.53691
 N872 N 0.39322 0.20971 0.53561
 N873 N 0.41198 0.21687 0.54418
 C874 C 0.42500 0.20299 0.55432
 N875 N 0.41870 0.18171 0.55537
 N876 N 0.40002 0.17457 0.54681
 C877 C 0.44478 0.21092 0.56554
 N878 N 0.45588 0.19724 0.57804
 N879 N 0.47276 0.20458 0.58985
 C880 C 0.47926 0.22583 0.58954
 N881 N 0.46846 0.23947 0.57671
 N882 N 0.45147 0.23216 0.56494
 C883 C 0.86610 0.68655 0.04007
 N884 N 0.85518 0.69654 0.02411
 N885 N 0.83543 0.68947 0.01831
 C886 C 0.82585 0.67232 0.02843
 N887 N 0.83689 0.66242 0.04432
 N888 N 0.85660 0.66934 0.04998
 C889 C 0.88760 0.69428 0.04729
 N890 N 0.89878 0.68226 0.06138
 N891 N 0.91770 0.68948 0.06925
 C892 C 0.92619 0.70905 0.06340
 N893 N 0.91513 0.72106 0.04912
 N894 N 0.89617 0.71376 0.04114
 C895 C 0.94621 0.71743 0.07382
 N896 N 0.95388 0.73805 0.07064
 N897 N 0.97101 0.74599 0.08183
 C898 C 0.98102 0.73359 0.09654
 N899 N 0.97354 0.71293 0.09940
 N900 N 0.95648 0.70500 0.08826
 C901 C 0.62723 0.70026 0.95522
 N902 N 0.62503 0.68128 0.96586
 N903 N 0.64204 0.67200 0.97424
 C904 C 0.66194 0.68131 0.97238
 N905 N 0.66412 0.70052 0.96200
 N906 N 0.64708 0.70979 0.95351
 C907 C 0.60853 0.70941 0.94464
 N908 N 0.61070 0.72685 0.93159
 N909 N 0.59384 0.73404 0.92081
 C910 C 0.57423 0.72406 0.92272
 N911 N 0.57204 0.70680 0.93597
 N912 N 0.58888 0.69960 0.94670
 C913 C 0.55593 0.73083 0.90967
 N914 N 0.53660 0.72018 0.91113
 N915 N 0.52032 0.72529 0.89829
 C916 C 0.52279 0.74121 0.88353
 N917 N 0.54201 0.75203 0.88218
 N918 N 0.55831 0.74693 0.89503
 C919 C 0.13028 0.20091 0.43846
 N920 N 0.14869 0.19853 0.42711
 N921 N 0.16567 0.19003 0.43648
 C922 C 0.16491 0.18353 0.45756
 N923 N 0.14653 0.18615 0.46895
 N924 N 0.12957 0.19472 0.45961
 C925 C 0.11122 0.20916 0.42772
 N926 N 0.09307 0.21260 0.43924
 N927 N 0.07560 0.21945 0.42927
 C928 C 0.07561 0.22297 0.40740
 N929 N 0.09376 0.21954 0.39592
 N930 N 0.11124 0.21278 0.40589
 C931 C 0.05642 0.23039 0.39622
 N932 N 0.05616 0.23205 0.37409
 N933 N 0.03900 0.23913 0.36383
 C934 C 0.02148 0.24482 0.37532
 N935 N 0.02163 0.24314 0.39744
 N936 N 0.03879 0.23596 0.40772
 C937 C 0.55730 0.11333 0.69728
 N938 N 0.57726 0.11563 0.70612
 N939 N 0.58689 0.09857 0.71411
 C940 C 0.57697 0.07854 0.71366
 N941 N 0.55687 0.07631 0.70503
 N942 N 0.54724 0.09337 0.69694
 C943 C 0.54735 0.13192 0.68721
 N944 N 0.52865 0.12919 0.67585
 N945 N 0.52040 0.14579 0.66551
 C946 C 0.53050 0.16573 0.66623
 N947 N 0.54907 0.16852 0.67782
 N948 N 0.55735 0.15191 0.68809
 C949 C 0.52224 0.18355 0.65348
 N950 N 0.53220 0.20357 0.65423
 N951 N 0.52554 0.21926 0.64148
 C952 C 0.50877 0.21544 0.62748
 N953 N 0.49867 0.19554 0.62693
 N954 N 0.50526 0.17988 0.63971
 C955 C 1.06332 0.62350 0.20189
 N956 N 1.08401 0.62532 0.20879
 N957 N 1.09389 0.60805 0.21600
 C958 C 1.08349 0.58829 0.21664
 N959 N 1.06270 0.58656 0.20994
 N960 N 1.05282 0.60382 0.20265
 C961 C 1.05294 0.64224 0.19261
 N962 N 1.03327 0.63981 0.18308
 N963 N 1.02450 0.65644 0.17329
 C964 C 1.03502 0.67612 0.17273
 N965 N 1.05456 0.67864 0.18252
 N966 N 1.06337 0.66199 0.19226
 C967 C 1.02612 0.69379 0.16025
 N968 N 1.03635 0.71365 0.15973
 N969 N 1.02913 0.72903 0.14692
 C970 C 1.01151 0.72503 0.13409
 N971 N 1.00115 0.70533 0.13487
 N972 N 1.00828 0.69000 0.14772
 C973 C 0.94109 0.87833 0.19122
 N974 N 0.91948 0.87932 0.19207
 N975 N 0.91036 0.89658 0.20108
 C976 C 0.92243 0.91365 0.20958
 N977 N 0.94412 0.91267 0.20873
 N978 N 0.95329 0.89531 0.19974
 C979 C 0.95076 0.85920 0.18088
 N980 N 0.97228 0.85673 0.18112
 N981 N 0.98069 0.83926 0.17149
 C982 C 0.96787 0.82372 0.16125
 N983 N 0.94640 0.82625 0.16105
 N984 N 0.93801 0.84361 0.17071
 C985 C 0.97677 0.80456 0.15018
 N986 N 0.96370 0.79065 0.13815
 N987 N 0.97147 0.77334 0.12780
 C988 C 0.99257 0.76922 0.12917
 N989 N 1.00572 0.78302 0.14127
 N990 N 0.99795 0.80045 0.15158
 C991 C 0.44061 0.36898 0.68757
 N992 N 0.45320 0.38568 0.69606
 N993 N 0.44447 0.40320 0.70520
 C994 C 0.42283 0.40464 0.70625
 N995 N 0.41035 0.38786 0.69779
 N996 N 0.41905 0.37042 0.68861
 C997 C 0.44988 0.34973 0.67704
 N998 N 0.43686 0.33439 0.66685
 N999 N 0.44496 0.31698 0.65697
 C1000 C 0.46639 0.31418 0.65698
 N1001 N 0.47946 0.32947 0.66726
 N1002 N 0.47135 0.34697 0.67709
 C1003 C 0.47505 0.29506 0.64561
 N1004 N 0.49619 0.29078 0.64683
 N1005 N 0.50382 0.27350 0.63614
 C1006 C 0.49056 0.26002 0.62383
 N1007 N 0.46947 0.26429 0.62264
 N1008 N 0.46185 0.28146 0.63337
 C1009 C 0.45292 0.60204 0.79139
 N1010 N 0.44785 0.58586 0.80526
 N1011 N 0.43837 0.56735 0.79784
 C1012 C 0.43360 0.56418 0.77622
 N1013 N 0.43897 0.58028 0.76222
 N1014 N 0.44842 0.59890 0.76968
 C1015 C 0.46202 0.62285 0.80034
 N1016 N 0.46574 0.64025 0.78747
 N1017 N 0.47283 0.65935 0.79629
 C1018 C 0.47637 0.66165 0.81827
 N1019 N 0.47281 0.64419 0.83098
 N1020 N 0.46578 0.62519 0.82221
 C1021 C 0.48304 0.68267 0.82873
 N1022 N 0.48428 0.68435 0.85091
 N1023 N 0.48962 0.70324 0.86097
 C1024 C 0.49400 0.72121 0.84928
 N1025 N 0.49289 0.71968 0.82704
 N1026 N 0.48744 0.70069 0.81691
 C1027 C -0.06486 0.11971 0.28518
 N1028 N -0.08247 0.11104 0.29496
 N1029 N -0.09014 0.09127 0.28908
 C1030 C -0.08061 0.07933 0.27309
 N1031 N -0.06305 0.08807 0.26312
 N1032 N -0.05524 0.10787 0.26914
 C1033 C -0.05632 0.14129 0.29257
 N1034 N -0.03664 0.14887 0.28643
 N1035 N -0.02865 0.16792 0.29447
 C1036 C -0.04014 0.18009 0.30880
 N1037 N -0.05989 0.17259 0.31464
 N1038 N -0.06780 0.15356 0.30672
 C1039 C -0.03101 0.20019 0.31928
 N1040 N -0.04299 0.21180 0.33356
 N1041 N -0.03442 0.22883 0.34487
 C1042 C -0.01356 0.23489 0.34231
 N1043 N -0.00158 0.22356 0.32779
 N1044 N -0.01017 0.20649 0.31642
 C1045 C 0.06185 0.39295 0.29204
 N1046 N 0.07218 0.40738 0.30602
 N1047 N 0.08196 0.42521 0.29860
 C1048 C 0.08181 0.42943 0.27690
 N1049 N 0.07129 0.41506 0.26285
 N1050 N 0.06150 0.39711 0.27029
 C1051 C 0.05183 0.37307 0.30074
 N1052 N 0.04213 0.35748 0.28744
 N1053 N 0.03364 0.33933 0.29583
 C1054 C 0.03460 0.33620 0.31778
 N1055 N 0.04422 0.35183 0.33096
 N1056 N 0.05267 0.36988 0.32262
 C1057 C 0.02567 0.31635 0.32757
 N1058 N 0.02736 0.31408 0.34955
 N1059 N 0.01946 0.29633 0.35893
 C1060 C 0.00958 0.28015 0.34670
 N1061 N 0.00785 0.28225 0.32467
 N1062 N 0.01580 0.30009 0.31523
 C1063 C 0.55472 0.88379 0.78951
 N1064 N 0.55845 0.88575 0.76772
 N1065 N 0.56824 0.90371 0.76029
 C1066 C 0.57474 0.92024 0.77440
 N1067 N 0.57077 0.91823 0.79608
 N1068 N 0.56093 0.90042 0.80347
 C1069 C 0.54499 0.86389 0.79848
 N1070 N 0.54106 0.86333 0.82028
 N1071 N 0.53335 0.84525 0.82919
 C1072 C 0.52928 0.82694 0.81670
 N1073 N 0.53303 0.82743 0.79479
 N1074 N 0.54076 0.84563 0.78582
 C1075 C 0.52172 0.80704 0.82743
 N1076 N 0.51749 0.78797 0.81605
 N1077 N 0.51118 0.77010 0.82654
 C1078 C 0.50898 0.77078 0.84868
 N1079 N 0.51318 0.78978 0.85991
 N1080 N 0.51941 0.80755 0.84950
 C1081 C 0.69243 0.57045 0.12334
 N1082 N 0.69994 0.55732 0.10708
 N1083 N 0.70678 0.56568 0.08833
 C1084 C 0.70639 0.58749 0.08509
 N1085 N 0.69888 0.60047 0.10154
 N1086 N 0.69202 0.59216 0.12020
 C1087 C 0.68439 0.56159 0.14392
 N1088 N 0.67567 0.57505 0.15916
 N1089 N 0.66778 0.56727 0.17766
 C1090 C 0.66840 0.54573 0.18171
 N1091 N 0.67726 0.53222 0.16655
 N1092 N 0.68512 0.54001 0.14797
 C1093 C 0.65865 0.53732 0.20172
 N1094 N 0.65972 0.51601 0.20676
 N1095 N 0.64987 0.50845 0.22446
 C1096 C 0.63857 0.52193 0.23762
 N1097 N 0.63764 0.54321 0.23267
 N1098 N 0.64755 0.55078 0.21509
 C1099 C 0.19238 1.07235 0.61781
 N1100 N 0.19675 1.05853 0.60079
 N1101 N 0.20352 1.06621 0.58174
 C1102 C 0.20623 1.08800 0.57902
 N1103 N 0.20193 1.10175 0.59614
 N1104 N 0.19509 1.09409 0.61512
 C1105 C 0.18429 1.06414 0.63863
 N1106 N 0.17738 1.07823 0.65436
 N1107 N 0.16937 1.07093 0.67303
 C1108 C 0.16808 1.04927 0.67673
 N1109 N 0.17515 1.03516 0.66108
 N1110 N 0.18308 1.04246 0.64233
 C1111 C 0.15831 1.04135 0.69692
 N1112 N 0.15855 1.01996 0.70183
 N1113 N 0.14881 1.01277 0.71972
 C1114 C 0.13840 1.02670 0.73322
 N1115 N 0.13826 1.04806 0.72839
 N1116 N 0.14810 1.05528 0.71060
 C1117 C 0.20764 0.94642 0.87709
 N1118 N 0.21073 0.95608 0.89721
 N1119 N 0.21844 0.94492 0.91375
 C1120 C 0.22322 0.92359 0.91090
 N1121 N 0.22022 0.91412 0.89060
 N1122 N 0.21263 0.92528 0.87407
 C1123 C 0.19807 0.95816 0.85907
 N1124 N 0.19615 0.94862 0.83877
 N1125 N 0.18638 0.95862 0.82263
 C1126 C 0.17810 0.97850 0.82624
 N1127 N 0.18016 0.98813 0.84651
 N1128 N 0.19001 0.97815 0.86264
 C1129 C 0.16604 0.98876 0.80884
 N1130 N 0.15512 1.00705 0.81323
 N1131 N 0.14301 1.01553 0.79782
 C1132 C 0.14149 1.00606 0.77749
 N1133 N 0.15255 0.98793 0.77298
 N1134 N 0.16460 0.97939 0.78841
 C1135 C 0.70670 0.44500 0.38418
 N1136 N 0.70594 0.45353 0.40493
 N1137 N 0.71392 0.44290 0.42169
 C1138 C 0.72291 0.42329 0.41836
 N1139 N 0.72378 0.41489 0.39754
 N1140 N 0.71585 0.42552 0.38079
 C1141 C 0.69690 0.45610 0.36585
 N1142 N 0.69759 0.44744 0.34515
 N1143 N 0.68776 0.45690 0.32868
 C1144 C 0.67687 0.47535 0.33233
 N1145 N 0.67633 0.48410 0.35300
 N1146 N 0.68618 0.47466 0.36947
 C1147 C 0.66490 0.48502 0.31449
 N1148 N 0.65252 0.50233 0.31864
 N1149 N 0.64067 0.51036 0.30277
 C1150 C 0.64082 0.50140 0.28220
 N1151 N 0.65331 0.48422 0.27794
 N1152 N 0.66515 0.47616 0.29383
 C1153 C 0.79252 0.44106 0.61770
 N1154 N 0.77821 0.42395 0.61829
 N1155 N 0.77076 0.41432 0.59977
 C1156 C 0.77736 0.42138 0.57994
 N1157 N 0.79156 0.43860 0.57942
 N1158 N 0.79897 0.44827 0.59792
 C1159 C 0.80161 0.45100 0.63805
 N1160 N 0.81553 0.46843 0.63735
 N1161 N 0.82457 0.47688 0.65567
 C1162 C 0.82007 0.46820 0.67538
 N1163 N 0.80605 0.45085 0.67612
 N1164 N 0.79697 0.44242 0.65779
 C1165 C 0.83087 0.47694 0.69540
 N1166 N 0.82793 0.46717 0.71488
 N1167 N 0.83846 0.47460 0.73281
 C1168 C 0.85226 0.49208 0.73186
 N1169 N 0.85510 0.50194 0.71247
 N1170 N 0.84461 0.49449 0.69454
 C1171 C 0.29906 -0.06264 0.10689
 N1172 N 0.27767 -0.06398 0.10265
 N1173 N 0.27015 -0.07353 0.08409
 C1174 C 0.28373 -0.08217 0.06914
 N1175 N 0.30509 -0.08067 0.07344
 N1176 N 0.31259 -0.07108 0.09189
 C1177 C 0.30769 -0.05281 0.12749
 N1178 N 0.32919 -0.05092 0.13068
 N1179 N 0.33734 -0.04269 0.14948
 C1180 C 0.32431 -0.03609 0.16587
 N1181 N 0.30277 -0.03789 0.16271
 N1182 N 0.29459 -0.04610 0.14382
 C1183 C 0.33362 -0.02758 0.18671
 N1184 N 0.32104 -0.02205 0.20392
 N1185 N 0.32979 -0.01478 0.22288
 C1186 C 0.35138 -0.01282 0.22524
 N1187 N 0.36392 -0.01825 0.20807
 N1188 N 0.35521 -0.02553 0.18915
 C1189 C 0.27124 0.04495 0.37821
 N1190 N 0.25714 0.06106 0.37622
 N1191 N 0.24935 0.07102 0.39397
 C1192 C 0.25543 0.06534 0.41440
 N1193 N 0.26931 0.04899 0.41633
 N1194 N 0.27703 0.03897 0.39859
 C1195 C 0.28148 0.03541 0.35878
 N1196 N 0.29550 0.01925 0.36094
 N1197 N 0.30624 0.01183 0.34367
 C1198 C 0.30343 0.02033 0.32362
 N1199 N 0.28922 0.03632 0.32138
 N1200 N 0.27841 0.04371 0.33866
 C1201 C 0.31676 0.01342 0.30515
 N1202 N 0.31598 0.02355 0.28568
 N1203 N 0.32935 0.01834 0.26959
 C1204 C 0.34393 0.00283 0.27244
 N1205 N 0.34453 -0.00747 0.29176
 N1206 N 0.33121 -0.00226 0.30784
 C1207 C 0.78318 0.55368 0.88822
 N1208 N 0.76780 0.56853 0.88619
 N1209 N 0.75965 0.57822 0.90390
 C1210 C 0.76659 0.57353 0.92433
 N1211 N 0.78186 0.55851 0.92632
 N1212 N 0.78998 0.54875 0.90861
 C1213 C 0.79313 0.54407 0.86867
 N1214 N 0.80811 0.52879 0.87064
 N1215 N 0.81804 0.52100 0.85300
 C1216 C 0.81341 0.52824 0.83276
 N1217 N 0.79831 0.54340 0.83076
 N1218 N 0.78832 0.55114 0.84840
 C1219 C 0.82544 0.52069 0.81359
 N1220 N 0.82286 0.52982 0.79378
 N1221 N 0.83484 0.52391 0.77678
 C1222 C 0.84974 0.50862 0.77903
 N1223 N 0.85215 0.49930 0.79871
 N1224 N 0.84023 0.50525 0.81571
 C1225 C 0.12067 0.70589 0.56947
 N1226 N 0.10163 0.70467 0.55853
 N1227 N 0.08396 0.71187 0.56800
 C1228 C 0.08465 0.72045 0.58880
 N1229 N 0.10376 0.72173 0.59961
 N1230 N 0.12140 0.71462 0.59014
 C1231 C 0.14005 0.69714 0.55962
 N1232 N 0.15902 0.69903 0.57061
 N1233 N 0.17648 0.69023 0.56231
 C1234 C 0.17559 0.67918 0.54272
 N1235 N 0.15665 0.67741 0.53163
 N1236 N 0.13919 0.68626 0.53992
 C1237 C 0.19455 0.66839 0.53427
 N1238 N 0.19323 0.65560 0.51574
 N1239 N 0.21013 0.64483 0.50878
 C1240 C 0.22892 0.64648 0.52007
 N1241 N 0.23036 0.65943 0.53844
 N1242 N 0.21345 0.67018 0.54543
 C1243 C 0.61737 0.20296 1.06762
 N1244 N 0.59811 0.20176 1.05710
 N1245 N 0.58061 0.20875 1.06705
 C1246 C 0.58168 0.21708 1.08794
 N1247 N 0.60100 0.21834 1.09834
 N1248 N 0.61849 0.21145 1.08839
 C1249 C 0.63659 0.19444 1.05722
 N1250 N 0.65580 0.19637 1.06777
 N1251 N 0.67311 0.18770 1.05900
 C1252 C 0.67185 0.17675 1.03936
 N1253 N 0.65267 0.17497 1.02871
 N1254 N 0.63536 0.18369 1.03746
 C1255 C 0.69063 0.16592 1.03051
 N1256 N 0.68890 0.15300 1.01210
 N1257 N 0.70558 0.14200 1.00493
 C1258 C 0.72455 0.14356 1.01590
 N1259 N 0.72641 0.15667 1.03412
 N1260 N 0.70972 0.16764 1.04132
 C1261 C 0.87806 0.21187 0.95369
 N1262 N 0.89674 0.21386 0.96519
 N1263 N 0.91432 0.22242 0.95606
 C1264 C 0.91400 0.22917 0.93500
 N1265 N 0.89514 0.22722 0.92369
 N1266 N 0.87757 0.21881 0.93282
 C1267 C 0.85878 0.20165 0.96313
 N1268 N 0.83989 0.20150 0.95199
 N1269 N 0.82253 0.19137 0.95983
 C1270 C 0.82341 0.18091 0.97907
 N1271 N 0.84226 0.18114 0.99031
 N1272 N 0.85964 0.19138 0.98251
 C1273 C 0.80448 0.16870 0.98690
 N1274 N 0.80584 0.15575 1.00447
 N1275 N 0.78891 0.14375 1.01071
 C1276 C 0.77004 0.14435 0.99964
 N1277 N 0.76859 0.15745 0.98226
 N1278 N 0.78552 0.16938 0.97597
 C1279 C 0.38132 0.71684 0.45720
 N1280 N 0.37967 0.72608 0.43738
 N1281 N 0.39702 0.73383 0.42733
 C1282 C 0.41672 0.73274 0.43669
 N1283 N 0.41833 0.72374 0.45670
 N1284 N 0.40095 0.71588 0.46674
 C1285 C 0.36225 0.70694 0.46735
 N1286 N 0.36392 0.69497 0.48559
 N1287 N 0.34671 0.68477 0.49376
 C1288 C 0.32722 0.68622 0.48400
 N1289 N 0.32554 0.69841 0.46594
 N1290 N 0.34273 0.70855 0.45775
 C1291 C 0.30850 0.67376 0.49190
 N1292 N 0.28921 0.67512 0.48176
 N1293 N 0.27248 0.66278 0.48787
 C1294 C 0.27448 0.64863 0.50431
 N1295 N 0.29368 0.64738 0.51463
 N1296 N 0.31041 0.65974 0.50854
 C1297 C 0.62253 0.79489 0.44158
 N1298 N 0.61475 0.80448 0.42360
 N1299 N 0.59502 0.79959 0.41628
 C1300 C 0.58226 0.78483 0.42656
 N1301 N 0.59009 0.77507 0.44450
 N1302 N 0.60984 0.78011 0.45196
 C1303 C 0.64412 0.80113 0.44972
 N1304 N 0.65097 0.79551 0.46991
 N1305 N 0.67014 0.80257 0.47753
 C1306 C 0.68315 0.81534 0.46515
 N1307 N 0.67637 0.82065 0.44489
 N1308 N 0.65723 0.81372 0.43735
 C1309 C 0.70349 0.82487 0.47384
 N1310 N 0.71594 0.83755 0.46090
 N1311 N 0.73329 0.84816 0.46902
 C1312 C 0.73887 0.84647 0.49037
 N1313 N 0.72669 0.83351 0.50333
 N1314 N 0.70929 0.82284 0.49519
 C1315 C 0.11889 0.29668 -0.05270
 N1316 N 0.10664 0.28140 -0.04250
 N1317 N 0.08679 0.27629 -0.04965
 C1318 C 0.07842 0.28648 -0.06707
 N1319 N 0.09074 0.30175 -0.07714
 N1320 N 0.11057 0.30671 -0.07015
 C1321 C 0.14069 0.30283 -0.04509
 N1322 N 0.15346 0.31554 -0.05769
 N1323 N 0.17285 0.32228 -0.05069
 C1324 C 0.18023 0.31666 -0.03075
 N1325 N 0.16755 0.30379 -0.01813
 N1326 N 0.14813 0.29690 -0.02522
 C1327 C 0.20093 0.32587 -0.02266
 N1328 N 0.20724 0.32386 -0.00147
 N1329 N 0.22505 0.33420 0.00612
 C1330 C 0.23714 0.34680 -0.00726
 N1331 N 0.23103 0.34848 -0.02847
 N1332 N 0.21327 0.33821 -0.03603
 C1333 C 0.39066 0.29190 0.06505
 N1334 N 0.40623 0.30584 0.07319
 N1335 N 0.42343 0.29843 0.08301
 C1336 C 0.42589 0.27675 0.08509
 N1337 N 0.41039 0.26270 0.07671
 N1338 N 0.39305 0.27014 0.06688
 C1339 C 0.37146 0.30079 0.05516
 N1340 N 0.35470 0.28781 0.04773
 N1341 N 0.33721 0.29655 0.03949
 C1342 C 0.33592 0.31853 0.03847
 N1343 N 0.35271 0.33136 0.04582
 N1344 N 0.37010 0.32268 0.05400
 C1345 C 0.31686 0.32883 0.02989
 N1346 N 0.31648 0.35087 0.03000
 N1347 N 0.29956 0.36080 0.02239
 C1348 C 0.28233 0.34912 0.01436
 N1349 N 0.28253 0.32703 0.01420
 N1350 N 0.29955 0.31702 0.02189
 C1351 C 0.89310 0.79409 0.56269
 N1352 N 0.90848 0.80817 0.57094
 N1353 N 0.92568 0.80094 0.58093
 C1354 C 0.92830 0.77930 0.58308
 N1355 N 0.91300 0.76509 0.57455
 N1356 N 0.89568 0.77236 0.56455
 C1357 C 0.87383 0.80277 0.55273
 N1358 N 0.85731 0.78960 0.54511
 N1359 N 0.83971 0.79811 0.53687
 C1360 C 0.83808 0.82007 0.53604
 N1361 N 0.85464 0.83311 0.54357
 N1362 N 0.87214 0.82464 0.55175
 C1363 C 0.81882 0.83009 0.52757
 N1364 N 0.81788 0.85210 0.52816
 N1365 N 0.80070 0.86173 0.52072
 C1366 C 0.78379 0.84977 0.51238
 N1367 N 0.78456 0.82771 0.51173
 N1368 N 0.80183 0.81800 0.51925
   
