data_POSCAR
  _audit_creation_date              2014-09-24
  _audit_creation_method            'ToBaCCo'
  _symmetry_space_group_name_H-M    'P1'
  _symmetry_Int_Tables_number       1
  _symmetry_cell_setting            triclinic
  loop_
  _symmetry_equiv_pos_as_xyz
 x,y,z
_cell_length_a 24.2246
_cell_length_b 24.1740
_cell_length_c 27.3966
_cell_angle_alpha 90.047100
_cell_angle_beta 89.908300
_cell_angle_gamma 90.929600
loop_
  _atom_site_label
  _atom_site_type_symbol
  _atom_site_fract_x
  _atom_site_fract_y
  _atom_site_fract_z
C1 C 0.46355 0.00985 0.29829
 C2 C 0.42259 0.05877 0.29226
 C3 C 0.38625 0.05545 0.25398
 C4 C 0.39443 0.00291 0.22439
 C5 C 0.42566 -0.04150 0.29877
 C6 C 0.38866 -0.04531 0.26198
 C7 C 0.49285 0.00961 0.24768
 C8 C 0.45667 0.00775 0.20868
 H9 H 0.42457 0.09534 0.31481
 H10 H 0.36430 -0.00074 0.19403
 H11 H 0.42813 -0.07310 0.32663
 H12 H 0.53694 0.01552 0.24325
 C13 C 0.04368 -0.00250 0.79605
 C14 C 0.07870 -0.05472 0.78585
 C15 C 0.11329 -0.05211 0.74637
 C16 C 0.10870 0.00435 0.72019
 C17 C 0.08620 0.04470 0.79861
 C18 C 0.12167 0.04840 0.76077
 C19 C 0.01323 0.00500 0.75056
 C20 C 0.04854 0.00862 0.70806
 H21 H 0.07633 -0.09147 0.80834
 H22 H 0.13747 0.00753 0.68873
 H23 H 0.08768 0.07371 0.82880
 H24 H -0.03140 0.00506 0.74862
 C25 C 0.54410 0.49357 0.29771
 C26 C 0.57904 0.44147 0.28855
 C27 C 0.61530 0.44343 0.25055
 C28 C 0.61059 0.49933 0.22271
 C29 C 0.58578 0.54150 0.29975
 C30 C 0.62187 0.54530 0.26233
 C31 C 0.51272 0.50066 0.24993
 C32 C 0.54669 0.50330 0.21013
 H33 H 0.57386 0.40423 0.31003
 H34 H 0.63854 0.50230 0.19066
 H35 H 0.58447 0.57251 0.32807
 H36 H 0.46819 0.50278 0.24767
 C37 C 0.96500 0.50828 0.79906
 C38 C 0.92373 0.55588 0.79216
 C39 C 0.88720 0.55131 0.75441
 C40 C 0.89570 0.49744 0.72582
 C41 C 0.92884 0.45581 0.80085
 C42 C 0.89216 0.44933 0.76429
 C43 C 0.99416 0.50704 0.74840
 C44 C 0.95772 0.50271 0.70960
 H45 H 0.92678 0.59368 0.81312
 H46 H 0.86555 0.49242 0.69562
 H47 H 0.93400 0.42407 0.82822
 H48 H 1.03815 0.51342 0.74365
 C49 C 0.29806 0.36687 1.01102
 C50 C 0.29299 0.32346 1.04999
 C51 C 0.24881 0.28843 1.04498
 C52 C 0.21057 0.30222 0.99948
 C53 C 0.29720 0.33193 0.96397
 C54 C 0.25133 0.29922 0.95562
 C55 C 0.24283 0.39758 1.01022
 C56 C 0.19660 0.36556 1.00314
 H57 H 0.31970 0.32353 1.08175
 H58 H 0.17373 0.27464 0.99575
 H59 H 0.33021 0.33494 0.93776
 H60 H 0.24081 0.44208 1.01441
 C61 C 0.80387 0.13534 0.99813
 C62 C 0.79781 0.17146 0.95455
 C63 C 0.75307 0.20391 0.95495
 C64 C 0.71536 0.19549 1.00314
 C65 C 0.80388 0.17710 1.04047
 C66 C 0.75644 0.20731 1.04642
 C67 C 0.75237 0.10359 1.00285
 C68 C 0.70333 0.13532 1.00801
 H69 H 0.82547 0.16881 0.92338
 H70 H 0.67802 0.22151 1.00382
 H71 H 0.83571 0.17595 1.06797
 H72 H 0.75104 0.05874 1.00172
 C73 C 0.30036 0.63540 0.49334
 C74 C 0.29372 0.67019 0.44859
 C75 C 0.25087 0.70531 0.44984
 C76 C 0.21432 0.69974 0.49814
 C77 C 0.30245 0.67872 0.53455
 C78 C 0.25614 0.71108 0.54014
 C79 C 0.24526 0.60453 0.50114
 C80 C 0.19997 0.63673 0.50542
 H81 H 0.32023 0.66600 0.41685
 H82 H 0.17787 0.72698 0.49879
 H83 H 0.33432 0.67678 0.56177
 H84 H 0.24232 0.55974 0.50187
 C85 C 0.80206 0.86756 0.51126
 C86 C 0.79633 0.82514 0.55137
 C87 C 0.75172 0.79035 0.54719
 C88 C 0.71362 0.80347 0.50146
 C89 C 0.80034 0.83116 0.46498
 C90 C 0.75386 0.79888 0.45734
 C91 C 0.74710 0.89882 0.50996
 C92 C 0.70048 0.86698 0.50389
 H93 H 0.82347 0.82518 0.58281
 H94 H 0.67636 0.77635 0.49844
 H95 H 0.83310 0.83332 0.43850
 H96 H 0.74555 0.94344 0.51312
 C97 C -0.00201 0.29640 0.40383
 C98 C 0.02247 0.31048 0.35432
 C99 C 0.02838 0.26558 0.32575
 C100 C -0.00088 0.21393 0.34507
 C101 C -0.05608 0.27396 0.39425
 C102 C -0.05532 0.23033 0.35997
 C103 C 0.03102 0.24795 0.42374
 C104 C 0.02870 0.20302 0.39331
 H105 H 0.04734 0.34785 0.34894
 H106 H -0.00083 0.17820 0.31941
 H107 H -0.09370 0.29483 0.40432
 H108 H 0.04033 0.24400 0.46228
 C109 C -0.00097 0.79138 0.09762
 C110 C -0.01749 0.80607 0.14954
 C111 C -0.02128 0.76162 0.17899
 C112 C 0.00434 0.71025 0.15717
 C113 C 0.05657 0.76934 0.10186
 C114 C 0.05926 0.72895 0.13547
 C115 C -0.03616 0.74163 0.08144
 C116 C -0.02990 0.69762 0.11204
 H117 H -0.04101 0.84314 0.15698
 H118 H 0.00727 0.67504 0.18314
 H119 H 0.09290 0.79199 0.08896
 H120 H -0.04881 0.73615 0.04377
 C121 C 0.50390 0.29556 0.59716
 C122 C 0.48174 0.31072 0.64692
 C123 C 0.47746 0.26696 0.67681
 C124 C 0.50595 0.21556 0.65793
 C125 C 0.56123 0.27608 0.60593
 C126 C 0.56158 0.23605 0.63977
 C127 C 0.47192 0.24427 0.57914
 C128 C 0.47646 0.20098 0.61066
 H129 H 0.45662 0.34724 0.65216
 H130 H 0.50783 0.18110 0.68475
 H131 H 0.59808 0.29914 0.59484
 H132 H 0.46241 0.23790 0.54085
 C133 C 0.49202 0.80257 0.90462
 C134 C 0.55130 0.78840 0.89609
 C135 C 0.55689 0.74470 0.86591
 C136 C 0.50306 0.71595 0.85139
 C137 C 0.46742 0.80820 0.85351
 C138 C 0.47011 0.76130 0.82689
 C139 C 0.46625 0.75436 0.92574
 C140 C 0.47600 0.70564 0.89731
 H141 H 0.58492 0.81667 0.90548
 H142 H 0.50762 0.67862 0.82800
 H143 H 0.43752 0.83963 0.84486
 H144 H 0.45334 0.75328 0.96364
 C145 C -0.24137 0.71499 0.95152
 C146 C -0.19533 0.67179 0.95731
 C147 C -0.20015 0.63547 0.99529
 C148 C -0.25270 0.64583 1.02494
 C149 C -0.29494 0.68056 0.95074
 C150 C -0.30171 0.64392 0.98743
 C151 C -0.24014 0.74416 1.00224
 C152 C -0.24452 0.70774 1.04111
 H153 H -0.15809 0.67355 0.93559
 H154 H -0.25799 0.61557 1.05509
 H155 H -0.32663 0.68622 0.92347
 H156 H -0.23185 0.78797 1.00687
 C157 C -0.25894 0.28915 0.45621
 C158 C -0.30913 0.32691 0.46514
 C159 C -0.30497 0.36324 0.50323
 C160 C -0.24860 0.35677 0.52991
 C161 C -0.20969 0.32965 0.45206
 C162 C -0.20369 0.36622 0.48909
 C163 C -0.25268 0.26016 0.50212
 C164 C -0.24679 0.29659 0.54321
 H165 H -0.34614 0.32461 0.44312
 H166 H -0.24407 0.38590 0.56103
 H167 H -0.18110 0.32895 0.42180
 H168 H -0.25336 0.21549 0.50518
 C169 C 0.24938 -0.20495 -0.04886
 C170 C 0.19660 -0.17078 -0.03962
 C171 C 0.19758 -0.13625 -0.00015
 C172 C 0.25312 -0.14043 0.02747
 C173 C 0.29640 -0.16242 -0.04963
 C174 C 0.29836 -0.12683 -0.01192
 C175 C 0.25563 -0.23599 -0.00346
 C176 C 0.25759 -0.20090 0.03937
 H177 H 0.15985 -0.17542 -0.06168
 H178 H 0.25499 -0.11185 0.05916
 H179 H 0.32771 -0.16205 -0.07799
 H180 H 0.25666 -0.28070 -0.00190
 C181 C 0.25735 1.21438 0.45025
 C182 C 0.30822 1.17634 0.45653
 C183 C 0.30650 1.13959 0.49461
 C184 C 0.25342 1.14474 0.52397
 C185 C 0.20808 1.17427 0.44967
 C186 C 0.20589 1.13697 0.48612
 C187 C 0.25536 1.24367 0.50085
 C188 C 0.25506 1.20715 0.53982
 H189 H 0.34553 1.18195 0.43543
 H190 H 0.25104 1.11430 0.55425
 H191 H 0.17592 1.17609 0.42233
 H192 H 0.25936 1.28803 0.50537
 C193 C 0.11598 0.55125 0.23711
 C194 C 0.07244 0.54596 0.19796
 C195 C 0.03753 0.50141 0.20288
 C196 C 0.05125 0.46322 0.24827
 C197 C 0.08092 0.54963 0.28431
 C198 C 0.04805 0.50348 0.29236
 C199 C 0.14649 0.49585 0.23765
 C200 C 0.11434 0.44954 0.24449
 H201 H 0.07218 0.57288 0.16633
 H202 H 0.02396 0.42609 0.25183
 H203 H 0.08445 0.58215 0.31094
 H204 H 0.19091 0.49377 0.23368
 C205 C -0.11280 1.04794 0.25746
 C206 C -0.07655 1.04069 0.30099
 C207 C -0.04251 0.99686 0.29841
 C208 C -0.05079 0.96044 0.24991
 C209 C -0.07051 1.04988 0.21513
 C210 C -0.03933 1.00281 0.20829
 C211 C -0.14317 0.99617 0.25107
 C212 C -0.11067 0.94810 0.24438
 H213 H -0.07895 1.06744 0.33275
 H214 H -0.02444 0.92331 0.24830
 H215 H -0.07104 1.08300 0.18891
 H216 H -0.18792 0.99380 0.25233
 C217 C 0.38978 0.55737 -0.24933
 C218 C 0.42189 0.54990 -0.20354
 C219 C 0.45395 0.50503 -0.20266
 C220 C 0.44861 0.46767 -0.25075
 C221 C 0.43472 0.55681 -0.28881
 C222 C 0.46321 0.50825 -0.29354
 C223 C 0.35591 0.50334 -0.25701
 C224 C 0.38561 0.45590 -0.25917
 H225 H 0.41811 0.57760 -0.17250
 H226 H 0.47412 0.42995 -0.25000
 H227 H 0.43770 0.58950 -0.31545
 H228 H 0.31121 0.50281 -0.25872
 C229 C 0.61608 0.04891 -0.26113
 C230 C 0.57414 0.04292 -0.30112
 C231 C 0.53923 -0.00142 -0.29630
 C232 C 0.55198 -0.03909 -0.25011
 C233 C 0.57975 0.04858 -0.21503
 C234 C 0.54760 0.00226 -0.20674
 C235 C 0.64713 -0.00615 -0.25894
 C236 C 0.61534 -0.05261 -0.25215
 H237 H 0.57437 0.06979 -0.33282
 H238 H 0.52461 -0.07615 -0.24657
 H239 H 0.58206 0.08189 -0.18893
 H240 H 0.69163 -0.00791 -0.26244
 C241 C 0.05230 0.23997 0.84468
 C242 C 0.04184 0.29895 0.85765
 C243 C -0.00208 0.30448 0.88733
 C244 C -0.03383 0.25128 0.89854
 C245 C 0.05583 0.20994 0.89348
 C246 C 0.00940 0.21373 0.92049
 C247 C 0.00306 0.21922 0.82174
 C248 C -0.04499 0.22855 0.85111
 H249 H 0.07128 0.33208 0.84961
 H250 H -0.07082 0.25601 0.92224
 H251 H 0.08477 0.17690 0.89950
 H252 H 0.00158 0.20878 0.78327
 C253 C 0.54421 0.25257 0.15430
 C254 C 0.55801 0.23268 0.10352
 C255 C 0.51351 0.22928 0.07452
 C256 C 0.46289 0.25758 0.09531
 C257 C 0.52521 0.31067 0.14755
 C258 C 0.48455 0.31276 0.11432
 C259 C 0.49299 0.22050 0.17248
 C260 C 0.44909 0.22645 0.14207
 H261 H 0.59462 0.20828 0.09652
 H262 H 0.42789 0.26066 0.06926
 H263 H 0.54942 0.34682 0.15856
 H264 H 0.48749 0.20947 0.21056
 C265 C 0.04481 0.75087 0.65361
 C266 C 0.05798 0.72911 0.60301
 C267 C 0.01323 0.72455 0.57415
 C268 C -0.03713 0.75305 0.59465
 C269 C 0.02404 0.80842 0.64569
 C270 C -0.01722 0.80919 0.61299
 C271 C -0.00551 0.71831 0.67262
 C272 C -0.04959 0.72257 0.64179
 H273 H 0.09429 0.70414 0.59669
 H274 H -0.07249 0.75477 0.56884
 H275 H 0.04698 0.84543 0.65657
 H276 H -0.01075 0.70857 0.71099
 C277 C 0.54951 0.74994 0.34073
 C278 C 0.56174 0.78178 0.38688
 C279 C 0.51664 0.78824 0.41495
 C280 C 0.46644 0.75494 0.39885
 C281 C 0.52923 0.69386 0.35748
 C282 C 0.48732 0.69735 0.38947
 C283 C 0.49977 0.77686 0.31731
 C284 C 0.45535 0.77695 0.34802
 H285 H 0.59840 0.80805 0.39026
 H286 H 0.43059 0.75625 0.42424
 H287 H 0.55188 0.65619 0.35169
 H288 H 0.49572 0.78142 0.27811
 Zr289 Zr 0.05002 -0.04278 1.06473
 O290 O 0.11533 -0.02315 1.11311
 O291 O 0.03174 -0.12183 1.08527
 O292 O 0.02065 -0.03023 1.13968
 O293 O 0.13637 -0.07338 0.96574
 O294 O -0.06587 0.00247 1.12781
 O295 O 0.12491 -0.08809 1.04756
 O296 O -0.03677 -0.15393 1.03458
 O297 O -0.03642 -0.05111 1.05776
 O298 O 0.03199 -0.08183 0.99789
 O299 O 0.01954 0.03771 1.06814
 O300 O 0.08832 0.00564 1.01028
 Zr301 Zr -0.04776 0.04350 0.93664
 Zr302 Zr -0.06589 0.02921 1.05642
 Zr303 Zr 0.06545 -0.03182 0.94399
 Zr304 Zr -0.05340 -0.08656 0.98980
 O305 O 0.12965 0.01262 0.90830
 O306 O -0.12813 -0.10456 1.02729
 O307 O -0.01985 -0.03881 0.93346
 O308 O -0.08627 -0.00732 0.98963
 O309 O -0.03141 0.08104 1.00406
 O310 O 0.03875 0.05000 0.94353
 C311 C -0.00204 -0.15870 1.06940
 C312 C 0.15103 -0.09555 1.00621
 C313 C -0.02641 -0.01113 1.15578
 O314 O -0.14404 -0.00274 1.07882
 O315 O -0.13168 0.07836 1.03679
 O316 O -0.11986 0.08994 0.95487
 C317 C -0.14552 0.09899 0.99590
 O318 O 0.12399 0.09160 1.05901
 Zr319 Zr 0.05429 0.08471 1.01234
 O320 O -0.03010 0.12610 0.91971
 O321 O -0.06071 0.10302 1.09743
 O322 O 0.05136 0.14837 1.06565
 O323 O 0.12006 0.11666 0.96927
 O324 O 0.01883 0.15622 0.98575
 C325 C -0.00455 0.16347 0.94474
 O326 O -0.11224 0.02741 0.88645
 O327 O 0.08793 -0.10364 0.90561
 O328 O -0.01653 0.03457 0.86277
 O329 O 0.03246 -0.04234 0.87418
 O330 O -0.03667 -0.15624 0.94538
 O331 O -0.11327 -0.09796 0.93387
 C332 C 0.01485 -0.00448 0.84615
 H333 H 0.04771 -0.11918 0.99495
 H334 H -0.12672 -0.00958 0.98462
 H335 H 0.05496 0.07222 0.91662
 H336 H 0.02866 0.05589 1.09954
 H337 H -0.13564 -0.14478 1.02371
 H338 H -0.15871 0.02164 1.10483
 H339 H -0.09657 0.10587 1.11434
 H340 H 0.07645 0.17893 1.05495
 H341 H -0.06268 -0.18647 0.95491
 H342 H 0.05945 -0.13235 0.91264
 H343 H 0.14236 -0.01186 0.88170
 H344 H 0.12720 0.15481 0.98115
 H345 H -0.13719 -0.13031 0.94187
 H346 H -0.11623 0.06169 0.86699
 H347 H 0.12016 -0.05615 1.13398
 H348 H 0.15478 0.07150 1.04358
 Zr349 Zr 0.54977 0.46361 0.56313
 O350 O 0.61443 0.48783 0.61077
 O351 O 0.53381 0.38382 0.58487
 O352 O 0.52172 0.47675 0.63765
 O353 O 0.63369 0.42463 0.46679
 O354 O 0.43234 0.50154 0.62639
 O355 O 0.62612 0.41907 0.54941
 O356 O 0.47048 0.34536 0.53233
 O357 O 0.46409 0.44864 0.55596
 O358 O 0.53546 0.42163 0.49714
 O359 O 0.51268 0.54216 0.56391
 O360 O 0.58487 0.51540 0.50900
 Zr361 Zr 0.44504 0.53532 0.43312
 Zr362 Zr 0.42803 0.52613 0.55361
 Zr363 Zr 0.56766 0.47357 0.44409
 Zr364 Zr 0.45041 0.41046 0.48823
 O365 O 0.63021 0.53245 0.42608
 O366 O 0.37718 0.38427 0.52454
 O367 O 0.48294 0.45759 0.43201
 O368 O 0.40984 0.48564 0.48786
 O369 O 0.45773 0.57818 0.49862
 O370 O 0.53093 0.55053 0.43979
 C371 C 0.50336 0.34424 0.56835
 C372 C 0.65041 0.40670 0.50824
 C373 C 0.47374 0.49214 0.65407
 O374 O 0.35313 0.48563 0.57349
 O375 O 0.36193 0.57498 0.53275
 O376 O 0.37380 0.58414 0.45052
 C377 C 0.34884 0.59567 0.49151
 O378 O 0.61011 0.60547 0.55373
 Zr379 Zr 0.54206 0.59089 0.50629
 O380 O 0.45115 0.61353 0.40632
 O381 O 0.42129 0.59817 0.59665
 O382 O 0.51333 0.65408 0.55316
 O383 O 0.60955 0.63135 0.47119
 O384 O 0.51274 0.65326 0.45976
 C385 C 0.48064 0.65329 0.42230
 O386 O 0.38080 0.50507 0.38787
 O387 O 0.61336 0.42357 0.39597
 O388 O 0.47804 0.52750 0.36025
 O389 O 0.53247 0.45580 0.37626
 O390 O 0.47421 0.34280 0.44393
 O391 O 0.39245 0.39577 0.43131
 C392 C 0.51379 0.49126 0.34634
 H393 H 0.55205 0.38467 0.49446
 H394 H 0.36959 0.48057 0.48286
 H395 H 0.54573 0.57254 0.41215
 H396 H 0.52012 0.56230 0.59473
 H397 H 0.37225 0.34402 0.51867
 H398 H 0.33524 0.50879 0.59866
 H399 H 0.38660 0.59382 0.61559
 H400 H 0.53108 0.68915 0.54222
 H401 H 0.44982 0.31076 0.45209
 H402 H 0.63982 0.44713 0.37743
 H403 H 0.63125 0.53564 0.39021
 H404 H 0.60881 0.67093 0.48069
 H405 H 0.37180 0.36087 0.43785
 H406 H 0.37141 0.53615 0.36600
 H407 H 0.62079 0.45612 0.63292
 H408 H 0.61100 0.64486 0.56368
 Zr409 Zr 0.44046 1.03329 0.56722
 O410 O 0.37251 1.00462 0.60894
 O411 O 0.44765 1.11060 0.59846
 O412 O 0.47454 1.02176 0.63994
 O413 O 0.37569 1.08668 0.46171
 O414 O 0.52630 0.94426 0.63563
 O415 O 0.36952 1.08243 0.54513
 O416 O 0.52862 1.14104 0.56358
 O417 O 0.52725 1.03283 0.57252
 O418 O 0.47179 1.08076 0.50932
 O419 O 0.46339 0.95006 0.56317
 O420 O 0.40970 0.99839 0.50207
 Zr421 Zr 0.55335 0.96128 0.44143
 Zr422 Zr 0.55069 0.94986 0.56310
 Zr423 Zr 0.44663 1.04412 0.44489
 Zr424 Zr 0.55690 1.07969 0.51436
 O425 O 0.38192 1.01718 0.39830
 O426 O 0.62046 1.08853 0.56692
 O427 O 0.53293 1.04557 0.44653
 O428 O 0.58396 0.99822 0.50620
 O429 O 0.52227 0.91382 0.49977
 O430 O 0.46661 0.96094 0.43806
 C431 C 0.48516 1.14702 0.59052
 C432 C 0.35275 1.09954 0.50212
 C433 C 0.50726 0.98492 0.65924
 O434 O 0.61928 0.98056 0.60296
 O435 O 0.62024 0.90247 0.54307
 O436 O 0.62563 0.91351 0.46022
 C437 C 0.64427 0.89435 0.50167
 O438 O 0.35845 0.90849 0.53343
 Zr439 Zr 0.43603 0.91670 0.49772
 O440 O 0.54071 0.88061 0.41952
 O441 O 0.54436 0.86870 0.59118
 O442 O 0.42904 0.84521 0.54235
 O443 O 0.37516 0.89806 0.44442
 O444 O 0.46654 0.84768 0.46254
 C445 C 0.50772 0.84198 0.43401
 O446 O 0.62152 0.98557 0.39778
 O447 O 0.45494 1.12841 0.42453
 O448 O 0.52657 0.97347 0.36542
 O449 O 0.48138 1.05261 0.37541
 O450 O 0.55367 1.15501 0.47487
 O451 O 0.63209 1.09669 0.47659
 C452 C 0.49576 1.01295 0.34799
 H453 H 0.45799 1.11897 0.50895
 H454 H 0.62479 0.99904 0.50713
 H455 H 0.45149 0.94367 0.40817
 H456 H 0.44652 0.92878 0.59038
 H457 H 0.62679 1.12873 0.57193
 H458 H 0.62895 0.95124 0.62653
 H459 H 0.53490 0.84389 0.56356
 H460 H 0.40280 0.81903 0.52630
 H461 H 0.57300 1.18387 0.49444
 H462 H 0.43436 1.13375 0.39406
 H463 H 0.37015 1.04991 0.37954
 H464 H 0.36424 0.85880 0.44943
 H465 H 0.65026 1.13005 0.49070
 H466 H 0.62832 0.95422 0.37531
 H467 H 0.36594 1.03402 0.63338
 H468 H 0.33339 0.93636 0.51954
 Zr469 Zr -0.06461 0.53069 1.06712
 O470 O -0.13113 0.49995 1.10950
 O471 O -0.05956 0.60814 1.09786
 O472 O -0.02821 0.52283 1.13925
 O473 O -0.13270 0.57990 0.96286
 O474 O 0.02332 0.44528 1.13576
 O475 O -0.13643 0.57915 1.04633
 O476 O 0.02194 0.63904 1.06433
 O477 O 0.02205 0.53043 1.07176
 O478 O -0.03402 0.57947 1.00945
 O479 O -0.04071 0.44744 1.06281
 O480 O -0.09483 0.49591 1.00181
 Zr481 Zr 0.05034 0.46235 0.94189
 Zr482 Zr 0.04637 0.44757 1.06240
 Zr483 Zr -0.05876 0.54285 0.94506
 Zr484 Zr 0.05126 0.57901 1.01483
 O485 O -0.12150 0.51307 0.89759
 O486 O 0.11415 0.58781 1.06810
 O487 O 0.02768 0.54600 0.94685
 O488 O 0.07965 0.49797 1.00700
 O489 O 0.01954 0.41105 0.99801
 O490 O -0.03647 0.46137 0.93827
 C491 C -0.02196 0.64455 1.09067
 C492 C -0.15469 0.59434 1.00331
 C493 C 0.00503 0.48677 1.15879
 O494 O 0.11574 0.47286 1.10423
 O495 O 0.11699 0.40168 1.04286
 O496 O 0.12089 0.41161 0.95997
 C497 C 0.14028 0.39289 1.00129
 O498 O -0.14525 0.40583 1.03095
 Zr499 Zr -0.06702 0.41500 0.99647
 O500 O 0.03286 0.38777 0.91069
 O501 O 0.03517 0.36373 1.08190
 O502 O -0.06302 0.33966 1.03557
 O503 O -0.13455 0.39959 0.94948
 O504 O -0.04602 0.35455 0.94659
 C505 C -0.00602 0.35217 0.91642
 O506 O 0.12087 0.48943 0.90256
 O507 O -0.05825 0.62617 0.92160
 O508 O 0.02759 0.47561 0.86606
 O509 O -0.02124 0.55265 0.87645
 O510 O 0.04719 0.65450 0.97569
 O511 O 0.12650 0.59706 0.97758
 C512 C -0.00426 0.51384 0.84882
 H513 H -0.04848 0.61746 1.00854
 H514 H 0.12048 0.49888 1.00813
 H515 H -0.05185 0.44588 0.90780
 H516 H -0.05644 0.42550 1.09010
 H517 H 0.12067 0.62798 1.07311
 H518 H 0.12422 0.44195 1.12659
 H519 H 0.05905 0.35772 1.11046
 H520 H -0.09223 0.31503 1.02191
 H521 H 0.06598 0.68345 0.99556
 H522 H -0.08517 0.62809 0.89468
 H523 H -0.13325 0.54488 0.87768
 H524 H -0.14476 0.35985 0.95304
 H525 H 0.14417 0.63046 0.99209
 H526 H 0.12902 0.45972 0.87877
 H527 H -0.13803 0.52895 1.13423
 H528 H -0.13928 0.39696 1.06576
 Zr529 Zr -0.05150 0.46310 0.43389
 O530 O -0.11373 0.48057 0.38244
 O531 O -0.03460 0.38359 0.41417
 O532 O -0.01738 0.47313 0.35973
 O533 O -0.14477 0.42989 0.53091
 O534 O 0.06867 0.50837 0.37445
 O535 O -0.12675 0.41637 0.44991
 O536 O 0.02923 0.35253 0.46878
 O537 O 0.03397 0.45556 0.44443
 O538 O -0.03878 0.42541 0.50196
 O539 O -0.01945 0.54414 0.43120
 O540 O -0.09226 0.51247 0.48598
 Zr541 Zr 0.04249 0.55010 0.56470
 Zr542 Zr 0.06511 0.53641 0.44563
 Zr543 Zr -0.07499 0.47593 0.55376
 Zr544 Zr 0.04574 0.42080 0.51346
 O545 O -0.14674 0.51846 0.57527
 O546 O 0.12142 0.40018 0.47951
 O547 O 0.00999 0.46870 0.56822
 O548 O 0.08175 0.49983 0.51318
 O549 O 0.02976 0.58763 0.49700
 O550 O -0.04341 0.55673 0.55491
 C551 C -0.00306 0.34694 0.43207
 C552 C -0.15602 0.40756 0.48959
 C553 C 0.03102 0.49215 0.34502
 O554 O 0.14422 0.50486 0.42920
 O555 O 0.12789 0.59168 0.46549
 O556 O 0.11862 0.59632 0.54809
 C557 C 0.14407 0.60864 0.50714
 O558 O -0.12416 0.59085 0.43758
 Zr559 Zr -0.05557 0.59164 0.48587
 O560 O 0.02185 0.63042 0.58168
 O561 O 0.06326 0.60773 0.40124
 O562 O -0.04669 0.65470 0.43245
 O563 O -0.12116 0.62426 0.52790
 O564 O -0.02153 0.66429 0.51468
 C565 C 0.00451 0.67005 0.55482
 O566 O 0.10603 0.54121 0.61684
 O567 O -0.08483 0.40139 0.59344
 O568 O 0.01540 0.53258 0.63898
 O569 O -0.06700 0.48724 0.62879
 O570 O 0.02313 0.35279 0.55855
 O571 O 0.10304 0.41154 0.57145
 C572 C -0.02906 0.50791 0.65595
 H573 H -0.05508 0.38776 0.50477
 H574 H 0.12189 0.49785 0.51957
 H575 H -0.06088 0.57802 0.58154
 H576 H -0.02679 0.56129 0.39912
 H577 H 0.12721 0.36017 0.48493
 H578 H 0.16113 0.52863 0.40352
 H579 H 0.10006 0.61063 0.38574
 H580 H -0.07274 0.68448 0.44089
 H581 H 0.04810 0.32192 0.55067
 H582 H -0.11965 0.40437 0.61227
 H583 H -0.16516 0.49546 0.60061
 H584 H -0.12367 0.66393 0.51930
 H585 H 0.12404 0.37720 0.56640
 H586 H 0.10789 0.57639 0.63552
 H587 H -0.11851 0.44664 0.36245
 H588 H -0.14688 0.62385 0.44363
 Zr589 Zr 0.44839 -0.02981 -0.06551
 O590 O 0.38767 -0.00724 -0.11678
 O591 O 0.45858 -0.11004 -0.08423
 O592 O 0.48269 -0.02503 -0.13926
 O593 O 0.35330 -0.05999 0.03058
 O594 O 0.56953 0.00882 -0.12502
 O595 O 0.37245 -0.07408 -0.05005
 O596 O 0.52085 -0.14263 -0.02914
 O597 O 0.53322 -0.04198 -0.05376
 O598 O 0.45808 -0.06678 0.00324
 O599 O 0.48547 0.04878 -0.06969
 O600 O 0.40863 0.02227 -0.01552
 Zr601 Zr 0.54356 0.05572 0.06435
 Zr602 Zr 0.56921 0.03676 -0.05343
 Zr603 Zr 0.42301 -0.01350 0.05309
 Zr604 Zr 0.54162 -0.07550 0.01602
 O605 O 0.35220 0.03244 0.07101
 O606 O 0.61670 -0.10160 -0.01573
 O607 O 0.50727 -0.02409 0.06883
 O608 O 0.58173 0.00167 0.01526
 O609 O 0.53482 0.09213 -0.00441
 O610 O 0.45812 0.06573 0.05283
 C611 C 0.48916 -0.14721 -0.06663
 C612 C 0.34317 -0.08309 -0.01061
 C613 C 0.53143 -0.00782 -0.15406
 O614 O 0.64407 -0.00385 -0.06933
 O615 O 0.63860 0.08329 -0.03219
 O616 O 0.61955 0.10296 0.04727
 C617 C 0.65041 0.10766 0.00791
 O618 O 0.38525 0.10783 -0.06895
 Zr619 Zr 0.44981 0.09924 -0.01729
 O620 O 0.52179 0.13548 0.08138
 O621 O 0.57707 0.10807 -0.09735
 O622 O 0.46590 0.16020 -0.07139
 O623 O 0.38314 0.13565 0.02052
 O624 O 0.48258 0.17087 0.01306
 C625 C 0.50596 0.17557 0.05430
 O626 O 0.60726 0.04781 0.11636
 O627 O 0.40851 -0.08535 0.09556
 O628 O 0.51648 0.03685 0.13859
 O629 O 0.43033 -0.00020 0.12772
 O630 O 0.51469 -0.14143 0.06173
 O631 O 0.59683 -0.08740 0.07519
 C632 C 0.47007 0.01561 0.15523
 H633 H 0.44055 -0.10377 0.00681
 H634 H 0.62144 -0.00206 0.02286
 H635 H 0.43981 0.08796 0.07841
 H636 H 0.48021 0.06559 -0.10224
 H637 H 0.61908 -0.14202 -0.01033
 H638 H 0.66341 0.01739 -0.09539
 H639 H 0.61350 0.10520 -0.11346
 H640 H 0.44134 0.19187 -0.06495
 H641 H 0.53683 -0.17424 0.05329
 H642 H 0.37355 -0.07982 0.11373
 H643 H 0.33260 0.01152 0.09704
 H644 H 0.37831 0.17280 0.00604
 H645 H 0.61571 -0.12314 0.07106
 H646 H 0.60882 0.08335 0.13444
 H647 H 0.37977 -0.04076 -0.13661
 H648 H 0.35144 0.09023 -0.05521
 Zr649 Zr 0.54445 0.54653 -0.06298
 O650 O 0.60968 0.52520 -0.11014
 O651 O 0.51808 0.62211 -0.09255
 O652 O 0.51478 0.52803 -0.13580
 O653 O 0.63241 0.59269 0.03343
 O654 O 0.44465 0.46459 -0.12642
 O655 O 0.61859 0.59576 -0.04899
 O656 O 0.44808 0.65055 -0.04304
 O657 O 0.45846 0.54934 -0.05645
 O658 O 0.52666 0.59148 0.00038
 O659 O 0.51818 0.46320 -0.05916
 O660 O 0.58361 0.50398 -0.00556
 Zr661 Zr 0.44623 0.47199 0.07070
 Zr662 Zr 0.43262 0.46717 -0.05085
 Zr663 Zr 0.56262 0.54813 0.05733
 Zr664 Zr 0.44110 0.59086 0.00913
 O665 O 0.63648 0.51062 0.08068
 O666 O 0.36266 0.60465 -0.02244
 O667 O 0.47665 0.55369 0.06968
 O668 O 0.40858 0.51125 0.01200
 O669 O 0.46471 0.42498 0.00823
 O670 O 0.53273 0.46724 0.06420
 C671 C 0.48042 0.65633 -0.07918
 C672 C 0.64682 0.60798 -0.00951
 C673 C 0.47599 0.49512 -0.15297
 O674 O 0.36458 0.50504 -0.08485
 O675 O 0.36285 0.42456 -0.02803
 O676 O 0.37436 0.41900 0.05464
 C677 C 0.34871 0.40601 0.01382
 O678 O 0.61892 0.41124 -0.04515
 Zr679 Zr 0.55005 0.42342 0.00172
 O680 O 0.45475 0.39730 0.10086
 O681 O 0.42539 0.38442 -0.07527
 O682 O 0.53730 0.35021 -0.03965
 O683 O 0.61981 0.40251 0.04423
 O684 O 0.51958 0.36127 0.04928
 C685 C 0.48493 0.35936 0.08516
 O686 O 0.38169 0.49993 0.11581
 O687 O 0.56783 0.62664 0.09117
 O688 O 0.48097 0.48462 0.14344
 O689 O 0.55921 0.53778 0.13234
 O690 O 0.45840 0.66869 0.04197
 O691 O 0.38866 0.60832 0.06917
 C692 C 0.52617 0.50960 0.15919
 H693 H 0.54099 0.63004 -0.00079
 H694 H 0.36801 0.51249 0.01592
 H695 H 0.55041 0.44770 0.09159
 H696 H 0.53000 0.44219 -0.08826
 H697 H 0.35135 0.64212 -0.01210
 H698 H 0.34588 0.47616 -0.10485
 H699 H 0.45980 0.37492 -0.09260
 H700 H 0.55856 0.32054 -0.02374
 H701 H 0.42687 0.69318 0.03508
 H702 H 0.53106 0.63372 0.10549
 H703 H 0.65485 0.53612 0.10414
 H704 H 0.62090 0.36157 0.04534
 H705 H 0.35407 0.58648 0.06516
 H706 H 0.37404 0.46947 0.13914
 H707 H 0.61542 0.55741 -0.13179
 H708 H 0.63522 0.37461 -0.03884
 Zr709 Zr 0.05951 1.03264 0.43398
 O710 O 0.12255 1.00207 0.38852
 O711 O 0.05368 1.11098 0.40349
 O712 O 0.02387 1.01806 0.36216
 O713 O 0.14333 1.08251 0.53196
 O714 O -0.04417 0.95277 0.37265
 O715 O 0.13436 1.07951 0.44886
 O716 O -0.01820 1.14663 0.44684
 O717 O -0.02649 1.04212 0.43650
 O718 O 0.04202 1.08117 0.49542
 O719 O 0.02735 0.95185 0.44049
 O720 O 0.09332 0.99070 0.49435
 Zr721 Zr -0.04824 0.97239 0.56921
 Zr722 Zr -0.05821 0.96183 0.44701
 Zr723 Zr 0.07263 1.03907 0.55500
 Zr724 Zr -0.04284 1.08863 0.49928
 O725 O 0.14430 0.99789 0.57862
 O726 O -0.11518 1.10521 0.45900
 O727 O -0.01294 1.05205 0.56336
 O728 O -0.08058 1.01107 0.50706
 O729 O -0.03152 0.92124 0.50888
 O730 O 0.03766 0.96086 0.56514
 C731 C 0.02103 1.14975 0.41537
 C732 C 0.15915 1.09589 0.48890
 C733 C -0.01558 0.98521 0.34575
 O734 O -0.12493 1.00064 0.41190
 O735 O -0.12997 0.92189 0.47075
 O736 O -0.12166 0.92125 0.55390
 C737 C -0.14627 0.90627 0.51310
 O738 O 0.13012 0.88964 0.47429
 Zr739 Zr 0.05341 0.91330 0.50408
 O740 O -0.03897 0.89879 0.60352
 O741 O -0.06431 0.88093 0.41805
 O742 O 0.04584 0.84387 0.45714
 O743 O 0.11277 0.88259 0.55338
 O744 O 0.00598 0.85382 0.54244
 C745 C -0.01876 0.85620 0.58394
 O746 O -0.11403 1.00499 0.61023
 O747 O 0.08033 1.11774 0.58817
 O748 O -0.01698 0.99099 0.64289
 O749 O 0.06756 1.03177 0.63009
 O750 O -0.02530 1.16579 0.53330
 O751 O -0.10166 1.11616 0.55109
 C752 C 0.03070 1.01125 0.65842
 H753 H 0.05886 1.11869 0.49533
 H754 H -0.12112 1.01461 0.50930
 H755 H 0.05271 0.94199 0.59409
 H756 H 0.03840 0.92918 0.41213
 H757 H -0.12133 1.14550 0.46204
 H758 H -0.14313 0.97205 0.39124
 H759 H -0.05836 0.85466 0.44518
 H760 H 0.05988 0.81166 0.47544
 H761 H -0.04935 1.19397 0.51832
 H762 H 0.04314 1.12793 0.59977
 H763 H 0.16387 1.02294 0.60171
 H764 H 0.10655 0.84202 0.55528
 H765 H -0.13564 1.09330 0.54756
 H766 H -0.12319 0.97662 0.63516
 H767 H 0.13027 1.03164 0.36432
 H768 H 0.13347 0.90899 0.44256
 Zr769 Zr 0.71188 0.29519 0.19076
 O770 O 0.73809 0.36048 0.14443
 O771 O 0.63282 0.28099 0.16710
 O772 O 0.72554 0.26702 0.11585
 O773 O 0.67497 0.38018 0.28776
 O774 O 0.75399 0.17875 0.12722
 O775 O 0.66738 0.37127 0.20512
 O776 O 0.59512 0.21377 0.21631
 O777 O 0.69921 0.20874 0.19524
 O778 O 0.66728 0.27706 0.25482
 O779 O 0.79141 0.26134 0.19189
 O780 O 0.75873 0.33003 0.24848
 Zr781 Zr 0.78263 0.18925 0.32098
 Zr782 Zr 0.77789 0.17601 0.19986
 Zr783 Zr 0.71412 0.30786 0.31141
 Zr784 Zr 0.65902 0.19128 0.26129
 O785 O 0.75877 0.37091 0.34841
 O786 O 0.63657 0.11955 0.22122
 O787 O 0.70251 0.22205 0.32088
 O788 O 0.73599 0.15428 0.26409
 O789 O 0.82676 0.20595 0.25675
 O790 O 0.79334 0.27599 0.31642
 C791 C 0.59349 0.24941 0.18219
 C792 C 0.65662 0.39658 0.24617
 C793 C 0.74222 0.21927 0.09933
 O794 O 0.74334 0.09862 0.17846
 O795 O 0.82906 0.11164 0.21896
 O796 O 0.83457 0.12005 0.30188
 C797 C 0.84810 0.09698 0.26032
 O798 O 0.84852 0.35980 0.20432
 Zr799 Zr 0.83606 0.29130 0.25195
 O800 O 0.85812 0.20305 0.35158
 O801 O 0.84963 0.17668 0.15620
 O802 O 0.90686 0.28477 0.20687
 O803 O 0.86505 0.35549 0.29864
 O804 O 0.90012 0.25067 0.28975
 C805 C 0.89976 0.22571 0.33136
 O806 O 0.75632 0.12196 0.36477
 O807 O 0.64226 0.33307 0.34815
 O808 O 0.77277 0.22083 0.39432
 O809 O 0.69915 0.27287 0.37971
 O810 O 0.59089 0.20964 0.30678
 O811 O 0.63730 0.12386 0.30731
 C812 C 0.73634 0.25623 0.40867
 H813 H 0.63070 0.29447 0.25683
 H814 H 0.73241 0.11366 0.26803
 H815 H 0.81360 0.29119 0.34479
 H816 H 0.81191 0.27046 0.16158
 H817 H 0.59625 0.11357 0.22554
 H818 H 0.76748 0.08334 0.15262
 H819 H 0.88064 0.18835 0.17752
 H820 H 0.93696 0.30663 0.22257
 H821 H 0.55921 0.18632 0.29578
 H822 H 0.61226 0.30692 0.33874
 H823 H 0.73264 0.38656 0.37235
 H824 H 0.90589 0.35408 0.29791
 H825 H 0.65249 0.13266 0.33998
 H826 H 0.78749 0.11454 0.38708
 H827 H 0.70709 0.36744 0.12175
 H828 H 0.87855 0.38401 0.21710
 Zr829 Zr 0.78259 0.68791 0.68339
 O830 O 0.75282 0.62171 0.64002
 O831 O 0.86055 0.69330 0.65386
 O832 O 0.77429 0.72492 0.61127
 O833 O 0.83327 0.61999 0.78714
 O834 O 0.69638 0.77576 0.61486
 O835 O 0.83047 0.61539 0.70375
 O836 O 0.89050 0.77478 0.68803
 O837 O 0.78191 0.77487 0.67889
 O838 O 0.83061 0.71832 0.74180
 O839 O 0.69927 0.71115 0.68766
 O840 O 0.74725 0.65650 0.74819
 Zr841 Zr 0.71265 0.80124 0.80904
 Zr842 Zr 0.69884 0.79837 0.68828
 Zr843 Zr 0.79337 0.69223 0.80544
 Zr844 Zr 0.82946 0.80378 0.73664
 O845 O 0.76171 0.62829 0.85078
 O846 O 0.83753 0.86747 0.68410
 O847 O 0.79644 0.77887 0.80429
 O848 O 0.74830 0.83173 0.74420
 O849 O 0.66189 0.77072 0.75245
 O850 O 0.71205 0.71415 0.81222
 C851 C 0.89684 0.73077 0.66198
 C852 C 0.84655 0.59739 0.74661
 C853 C 0.73783 0.75781 0.59168
 O854 O 0.72595 0.86816 0.64766
 O855 O 0.65236 0.86842 0.70817
 O856 O 0.66131 0.87153 0.79116
 C857 C 0.64291 0.89118 0.74981
 O858 O 0.65655 0.60688 0.71703
 Zr859 Zr 0.66626 0.68402 0.75358
 O860 O 0.63847 0.78271 0.84066
 O861 O 0.61597 0.78880 0.66550
 O862 O 0.59088 0.69078 0.71522
 O863 O 0.65119 0.61443 0.79857
 O864 O 0.60675 0.70291 0.80511
 C865 C 0.60397 0.74266 0.83564
 O866 O 0.73896 0.87194 0.84861
 O867 O 0.87444 0.68687 0.83284
 O868 O 0.72614 0.77807 0.88475
 O869 O 0.80311 0.72929 0.87419
 O870 O 0.90767 0.80593 0.77127
 O871 O 0.85006 0.87498 0.77877
 C872 C 0.76428 0.74603 0.90185
 H873 H 0.86862 0.70417 0.74335
 H874 H 0.74843 0.87260 0.74322
 H875 H 0.69679 0.69843 0.84268
 H876 H 0.67768 0.69548 0.66018
 H877 H 0.87684 0.87941 0.68481
 H878 H 0.69595 0.87705 0.62456
 H879 H 0.61017 0.81682 0.63984
 H880 H 0.56604 0.66126 0.72812
 H881 H 0.93295 0.82931 0.75116
 H882 H 0.89242 0.72331 0.82705
 H883 H 0.79305 0.61595 0.87094
 H884 H 0.61150 0.60427 0.79506
 H885 H 0.82986 0.90687 0.76553
 H886 H 0.70921 0.87969 0.87244
 H887 H 0.78225 0.61504 0.61568
 H888 H 0.64468 0.61388 0.68310
 Zr889 Zr 0.21954 0.19814 0.81463
 O890 O 0.24275 0.13704 0.86541
 O891 O 0.13982 0.20810 0.83385
 O892 O 0.22481 0.23304 0.88838
 O893 O 0.18851 0.10347 0.71878
 O894 O 0.25756 0.32031 0.87364
 O895 O 0.17444 0.12242 0.79950
 O896 O 0.10645 0.27005 0.77872
 O897 O 0.20756 0.28321 0.80329
 O898 O 0.18216 0.20837 0.74610
 O899 O 0.29817 0.23470 0.81827
 O900 O 0.27071 0.15851 0.76386
 Zr901 Zr 0.30328 0.29400 0.68394
 Zr902 Zr 0.28641 0.31875 0.80240
 Zr903 Zr 0.23452 0.17331 0.69558
 Zr904 Zr 0.17331 0.29215 0.73388
 O905 O 0.28052 0.10261 0.67721
 O906 O 0.14806 0.36669 0.76736
 O907 O 0.22358 0.25784 0.68020
 O908 O 0.25038 0.33210 0.73409
 O909 O 0.34024 0.28449 0.75239
 O910 O 0.31370 0.20833 0.69498
 C911 C 0.10227 0.23791 0.81600
 C912 C 0.16538 0.09327 0.75998
 C913 C 0.24154 0.28220 0.90297
 O914 O 0.24910 0.39559 0.81778
 O915 O 0.33689 0.38557 0.78167
 O916 O 0.34695 0.37206 0.69990
 C917 C 0.35606 0.40016 0.74017
 O918 O 0.35581 0.13141 0.81337
 Zr919 Zr 0.34768 0.19931 0.76493
 O920 O 0.38372 0.27326 0.66786
 O921 O 0.35729 0.32346 0.84701
 O922 O 0.40814 0.21105 0.82011
 O923 O 0.38599 0.13580 0.72430
 O924 O 0.41829 0.23717 0.73772
 C925 C 0.42353 0.25932 0.69600
 O926 O 0.29692 0.35651 0.63039
 O927 O 0.16232 0.15847 0.65390
 O928 O 0.28354 0.26696 0.60991
 O929 O 0.24661 0.18065 0.62078
 O930 O 0.10684 0.26663 0.68838
 O931 O 0.16103 0.34847 0.67548
 C932 C 0.26236 0.22052 0.59328
 H933 H 0.14527 0.19081 0.74252
 H934 H 0.24659 0.37199 0.72688
 H935 H 0.33562 0.19066 0.66885
 H936 H 0.31498 0.22894 0.85073
 H937 H 0.10764 0.36926 0.76262
 H938 H 0.27103 0.41414 0.84380
 H939 H 0.35637 0.36031 0.86267
 H940 H 0.44012 0.18761 0.81191
 H941 H 0.07453 0.28933 0.69705
 H942 H 0.16761 0.12328 0.63593
 H943 H 0.25922 0.08268 0.65164
 H944 H 0.42327 0.13146 0.73844
 H945 H 0.12620 0.36850 0.68087
 H946 H 0.33252 0.35715 0.61241
 H947 H 0.20965 0.12937 0.88581
 H948 H 0.34026 0.09801 0.79713
 Zr949 Zr 0.28464 0.80682 0.31298
 O950 O 0.25466 0.86970 0.35903
 O951 O 0.36326 0.79984 0.34172
 O952 O 0.27147 0.77112 0.38502
 O953 O 0.33368 0.89202 0.21601
 O954 O 0.20777 0.70144 0.37502
 O955 O 0.33215 0.88168 0.29899
 O956 O 0.39845 0.72916 0.29634
 O957 O 0.29397 0.72065 0.30950
 O958 O 0.33184 0.78986 0.25061
 O959 O 0.20387 0.77470 0.30737
 O960 O 0.24174 0.84169 0.25367
 Zr961 Zr 0.22223 0.70056 0.17786
 Zr962 Zr 0.21372 0.68912 0.30012
 Zr963 Zr 0.28910 0.82183 0.19226
 Zr964 Zr 0.33897 0.70476 0.24575
 O965 O 0.24789 0.89419 0.17018
 O966 O 0.35640 0.63252 0.28612
 O967 O 0.30168 0.73610 0.18274
 O968 O 0.26154 0.66707 0.23910
 O969 O 0.17206 0.71663 0.23900
 O970 O 0.21095 0.78668 0.18279
 C971 C 0.40194 0.76808 0.32801
 C972 C 0.34800 0.90718 0.25910
 C973 C 0.23960 0.73100 0.40171
 O974 O 0.25283 0.62124 0.33336
 O975 O 0.17240 0.61806 0.27668
 O976 O 0.17008 0.62747 0.19365
 C977 C 0.15549 0.60253 0.23456
 O978 O 0.14013 0.87738 0.27603
 Zr979 Zr 0.16436 0.80165 0.24446
 O980 O 0.14932 0.71018 0.14348
 O981 O 0.13395 0.68344 0.33116
 O982 O 0.09548 0.79285 0.29173
 O983 O 0.13387 0.86269 0.19658
 O984 O 0.10496 0.75526 0.20488
 C985 C 0.10700 0.72995 0.16353
 O986 O 0.25405 0.63460 0.13647
 O987 O 0.36673 0.83000 0.15756
 O988 O 0.24048 0.73273 0.10427
 O989 O 0.28044 0.81779 0.11733
 O990 O 0.41564 0.72107 0.21066
 O991 O 0.36322 0.64635 0.19218
 C992 C 0.26020 0.78086 0.08891
 H993 H 0.36929 0.80668 0.24997
 H994 H 0.26482 0.62645 0.23640
 H995 H 0.19168 0.80214 0.15422
 H996 H 0.18175 0.78521 0.33622
 H997 H 0.39614 0.62528 0.28099
 H998 H 0.22470 0.60268 0.35425
 H999 H 0.10697 0.68953 0.30467
 H1000 H 0.06297 0.80630 0.27357
 H1001 H 0.44322 0.69539 0.22429
 H1002 H 0.37735 0.79259 0.14669
 H1003 H 0.27273 0.91414 0.14714
 H1004 H 0.09345 0.85627 0.19421
 H1005 H 0.34442 0.61061 0.19923
 H1006 H 0.22551 0.62578 0.11168
 H1007 H 0.28438 0.87724 0.38304
 H1008 H 0.16077 0.88077 0.30707
 Zr1009 Zr 0.21189 0.80357 0.68234
 O1010 O 0.23024 0.86852 0.63303
 O1011 O 0.13249 0.78358 0.66309
 O1012 O 0.22438 0.77327 0.60769
 O1013 O 0.17695 0.88788 0.78045
 O1014 O 0.25228 0.68534 0.62111
 O1015 O 0.16555 0.87822 0.69827
 O1016 O 0.10035 0.71852 0.71729
 O1017 O 0.20323 0.71725 0.69098
 O1018 O 0.17469 0.78769 0.75047
 O1019 O 0.29234 0.77244 0.67849
 O1020 O 0.26229 0.84308 0.73493
 Zr1021 Zr 0.29953 0.70713 0.81046
 Zr1022 Zr 0.28331 0.68708 0.69127
 Zr1023 Zr 0.22690 0.82256 0.80246
 Zr1024 Zr 0.16917 0.70235 0.75994
 O1025 O 0.27930 0.88825 0.82609
 O1026 O 0.14753 0.62733 0.72402
 O1027 O 0.21837 0.73710 0.81421
 O1028 O 0.24773 0.66819 0.75887
 O1029 O 0.33627 0.72213 0.74256
 O1030 O 0.30776 0.79371 0.80282
 C1031 C 0.09536 0.75130 0.68107
 C1032 C 0.15582 0.90305 0.73982
 C1033 C 0.24140 0.72504 0.59233
 O1034 O 0.25060 0.60790 0.67264
 O1035 O 0.33446 0.62236 0.71016
 O1036 O 0.34448 0.63423 0.79227
 C1037 C 0.35417 0.60846 0.75145
 O1038 O 0.34822 0.87651 0.68511
 Zr1039 Zr 0.34095 0.80780 0.73309
 O1040 O 0.38220 0.72352 0.82648
 O1041 O 0.35372 0.68917 0.64571
 O1042 O 0.40342 0.80195 0.67901
 O1043 O 0.37482 0.87446 0.77402
 O1044 O 0.41274 0.77454 0.76156
 C1045 C 0.41968 0.74947 0.80197
 O1046 O 0.28426 0.64289 0.86130
 O1047 O 0.16961 0.86030 0.84950
 O1048 O 0.28946 0.73731 0.88436
 O1049 O 0.21309 0.78623 0.87111
 O1050 O 0.10449 0.72423 0.80826
 O1051 O 0.15805 0.64147 0.81520
 C1052 C 0.24965 0.76796 0.90036
 H1053 H 0.13718 0.80265 0.75429
 H1054 H 0.24519 0.62777 0.76446
 H1055 H 0.33086 0.80916 0.82949
 H1056 H 0.31012 0.78081 0.64675
 H1057 H 0.10754 0.62036 0.72933
 H1058 H 0.27335 0.59279 0.64570
 H1059 H 0.38615 0.69690 0.66672
 H1060 H 0.43454 0.82682 0.68866
 H1061 H 0.07154 0.70131 0.79985
 H1062 H 0.18948 0.88854 0.86938
 H1063 H 0.28108 0.88583 0.86201
 H1064 H 0.41251 0.88123 0.76102
 H1065 H 0.12168 0.62282 0.81084
 H1066 H 0.31883 0.63876 0.88021
 H1067 H 0.19727 0.87234 0.61203
 H1068 H 0.32845 0.90790 0.69997
 Zr1069 Zr 0.27982 0.18895 0.18201
 O1070 O 0.25280 0.12153 0.13874
 O1071 O 0.35829 0.19734 0.15288
 O1072 O 0.27028 0.22363 0.10929
 O1073 O 0.32438 0.11790 0.28655
 O1074 O 0.19445 0.27777 0.11293
 O1075 O 0.33016 0.11874 0.20321
 O1076 O 0.38922 0.27566 0.19193
 O1077 O 0.28169 0.27602 0.17846
 O1078 O 0.32476 0.21752 0.24251
 O1079 O 0.19686 0.21353 0.18428
 O1080 O 0.24074 0.15612 0.24487
 Zr1081 Zr 0.20401 0.30020 0.30739
 Zr1082 Zr 0.19914 0.30089 0.18563
 Zr1083 Zr 0.28377 0.19046 0.30448
 Zr1084 Zr 0.32584 0.30295 0.23929
 O1085 O 0.24768 0.12804 0.34900
 O1086 O 0.34001 0.36862 0.18934
 O1087 O 0.28760 0.27718 0.30455
 O1088 O 0.24487 0.33196 0.24492
 O1089 O 0.15971 0.27130 0.24670
 O1090 O 0.20130 0.21319 0.31020
 C1091 C 0.39518 0.23373 0.16315
 C1092 C 0.34337 0.09921 0.24628
 C1093 C 0.23461 0.25736 0.08973
 O1094 O 0.23463 0.36907 0.14811
 O1095 O 0.15176 0.37051 0.20509
 O1096 O 0.15741 0.37303 0.28839
 C1097 C 0.14112 0.39315 0.24662
 O1098 O 0.16154 0.10857 0.20934
 Zr1099 Zr 0.15984 0.18474 0.24800
 O1100 O 0.12240 0.28510 0.32741
 O1101 O 0.11941 0.30002 0.15522
 O1102 O 0.08977 0.16997 0.20320
 O1103 O 0.13639 0.12770 0.30347
 O1104 O 0.08831 0.22199 0.27293
 C1105 C 0.08273 0.25763 0.30691
 O1106 O 0.22463 0.36853 0.35238
 O1107 O 0.36376 0.18396 0.33390
 O1108 O 0.21779 0.27471 0.38321
 O1109 O 0.29665 0.22991 0.37148
 O1110 O 0.39684 0.29438 0.28371
 O1111 O 0.34281 0.37704 0.27885
 C1112 C 0.25832 0.24513 0.40003
 H1113 H 0.36277 0.20347 0.24467
 H1114 H 0.24636 0.37290 0.24488
 H1115 H 0.18278 0.19995 0.34023
 H1116 H 0.17606 0.19774 0.15633
 H1117 H 0.38048 0.37453 0.18675
 H1118 H 0.20653 0.38120 0.12436
 H1119 H 0.09723 0.27291 0.17434
 H1120 H 0.06552 0.14269 0.22024
 H1121 H 0.42840 0.31197 0.26627
 H1122 H 0.36068 0.15480 0.35899
 H1123 H 0.27669 0.11561 0.37166
 H1124 H 0.09589 0.12249 0.30084
 H1125 H 0.37920 0.39249 0.26871
 H1126 H 0.19243 0.37417 0.37413
 H1127 H 0.28296 0.11539 0.11499
 H1128 H 0.14237 0.07965 0.22895
 Zr1129 Zr 0.71601 0.69948 0.31578
 O1130 O 0.73085 0.63812 0.36890
 O1131 O 0.63621 0.71709 0.33308
 O1132 O 0.72434 0.73356 0.38991
 O1133 O 0.68600 0.60358 0.21945
 O1134 O 0.75849 0.82017 0.37525
 O1135 O 0.67110 0.62327 0.29992
 O1136 O 0.60581 0.77846 0.27588
 O1137 O 0.70734 0.78481 0.30368
 O1138 O 0.68015 0.71053 0.24675
 O1139 O 0.79625 0.73291 0.31989
 O1140 O 0.76706 0.65797 0.26564
 Zr1141 Zr 0.80589 0.79192 0.18598
 Zr1142 Zr 0.78736 0.81725 0.30413
 Zr1143 Zr 0.73221 0.67361 0.19681
 Zr1144 Zr 0.67525 0.79498 0.23340
 O1145 O 0.77529 0.60169 0.17646
 O1146 O 0.65235 0.87119 0.26535
 O1147 O 0.72519 0.75846 0.18092
 O1148 O 0.75357 0.83205 0.23522
 O1149 O 0.84089 0.78116 0.25494
 O1150 O 0.81261 0.70589 0.19702
 C1151 C 0.59982 0.74741 0.31332
 C1152 C 0.66313 0.59303 0.26071
 C1153 C 0.74245 0.78225 0.40466
 O1154 O 0.75161 0.89485 0.31966
 O1155 O 0.83844 0.88328 0.28399
 O1156 O 0.85480 0.86654 0.20355
 C1157 C 0.86184 0.89552 0.24370
 O1158 O 0.84351 0.62941 0.31796
 Zr1159 Zr 0.84553 0.69579 0.26715
 O1160 O 0.88516 0.76810 0.17017
 O1161 O 0.85847 0.81964 0.34851
 O1162 O 0.90773 0.70399 0.32122
 O1163 O 0.87979 0.62988 0.22648
 O1164 O 0.91827 0.73137 0.24030
 C1165 C 0.92449 0.75404 0.19868
 O1166 O 0.80110 0.85591 0.13368
 O1167 O 0.65846 0.66318 0.15619
 O1168 O 0.78697 0.76552 0.11160
 O1169 O 0.74466 0.68145 0.12199
 O1170 O 0.60923 0.77096 0.18679
 O1171 O 0.66803 0.85069 0.17385
 C1172 C 0.76322 0.72039 0.09470
 H1173 H 0.64287 0.69368 0.24338
 H1174 H 0.75160 0.87209 0.22792
 H1175 H 0.83411 0.68751 0.17101
 H1176 H 0.81294 0.72667 0.35233
 H1177 H 0.61264 0.87644 0.25842
 H1178 H 0.77383 0.91311 0.34567
 H1179 H 0.85890 0.85660 0.36402
 H1180 H 0.93702 0.67719 0.31331
 H1181 H 0.57819 0.79629 0.19299
 H1182 H 0.66170 0.62845 0.13720
 H1183 H 0.75310 0.58322 0.15064
 H1184 H 0.91919 0.62804 0.23585
 H1185 H 0.63391 0.87227 0.17777
 H1186 H 0.83673 0.85601 0.11576
 H1187 H 0.69608 0.63367 0.38777
 H1188 H 0.87290 0.60299 0.30971
 Zr1189 Zr 0.79459 0.29529 0.81498
 O1190 O 0.77194 0.36038 0.86187
 O1191 O 0.87056 0.26935 0.84388
 O1192 O 0.77596 0.26519 0.88788
 O1193 O 0.84056 0.38391 0.71854
 O1194 O 0.71300 0.19459 0.87825
 O1195 O 0.84359 0.36978 0.80098
 O1196 O 0.89937 0.20090 0.79268
 O1197 O 0.79781 0.20914 0.80789
 O1198 O 0.83900 0.27815 0.75122
 O1199 O 0.71160 0.26853 0.81124
 O1200 O 0.75190 0.33474 0.75781
 Zr1201 Zr 0.72088 0.19763 0.68060
 Zr1202 Zr 0.71587 0.18293 0.80244
 Zr1203 Zr 0.79565 0.31449 0.69456
 Zr1204 Zr 0.83894 0.19254 0.74193
 O1205 O 0.75945 0.38952 0.67203
 O1206 O 0.85353 0.11449 0.77424
 O1207 O 0.80196 0.22859 0.68161
 O1208 O 0.75984 0.15959 0.73927
 O1209 O 0.67414 0.21539 0.74347
 O1210 O 0.71519 0.28410 0.68766
 C1211 C 0.90519 0.23273 0.82910
 C1212 C 0.85588 0.39812 0.76146
 C1213 C 0.74309 0.22619 0.90506
 O1214 O 0.75270 0.11432 0.83663
 O1215 O 0.67362 0.11316 0.77865
 O1216 O 0.66773 0.12586 0.69605
 C1217 C 0.65498 0.09964 0.73664
 O1218 O 0.66091 0.37034 0.79706
 Zr1219 Zr 0.67178 0.30076 0.75062
 O1220 O 0.64711 0.20872 0.64994
 O1221 O 0.63269 0.17661 0.82546
 O1222 O 0.59915 0.29134 0.79328
 O1223 O 0.64936 0.36873 0.70628
 O1224 O 0.60862 0.26580 0.70702
 C1225 C 0.60792 0.23502 0.66854
 O1226 O 0.74814 0.13217 0.63607
 O1227 O 0.87418 0.31749 0.66085
 O1228 O 0.73638 0.23121 0.60755
 O1229 O 0.78262 0.31330 0.61991
 O1230 O 0.91597 0.20995 0.70789
 O1231 O 0.85574 0.13954 0.68203
 C1232 C 0.75810 0.27834 0.59217
 H1233 H 0.87744 0.29264 0.75217
 H1234 H 0.76130 0.11898 0.73517
 H1235 H 0.69544 0.30134 0.66018
 H1236 H 0.69061 0.28020 0.84038
 H1237 H 0.89085 0.10322 0.76362
 H1238 H 0.72344 0.09563 0.85621
 H1239 H 0.62366 0.21053 0.84381
 H1240 H 0.56986 0.31291 0.77719
 H1241 H 0.94063 0.17843 0.71445
 H1242 H 0.87821 0.28254 0.64242
 H1243 H 0.78513 0.40801 0.64874
 H1244 H 0.60849 0.36839 0.70487
 H1245 H 0.83525 0.10427 0.68705
 H1246 H 0.71841 0.12553 0.61192
 H1247 H 0.80396 0.36697 0.88340
 H1248 H 0.62626 0.38935 0.78865
   
