data_POSCAR
  _audit_creation_date              2014-09-24
  _audit_creation_method            'ToBaCCo'
  _symmetry_space_group_name_H-M    'P1'
  _symmetry_Int_Tables_number       1
  _symmetry_cell_setting            triclinic
  loop_
  _symmetry_equiv_pos_as_xyz
 x,y,z
_cell_length_a 33.8196
_cell_length_b 34.2958
_cell_length_c 34.3086
_cell_angle_alpha 89.590200
_cell_angle_beta 89.637300
_cell_angle_gamma 89.908800
loop_
  _atom_site_label
  _atom_site_type_symbol
  _atom_site_fract_x
  _atom_site_fract_y
  _atom_site_fract_z
C1 C 0.09738 0.00261 0.22359
 C2 C 0.12609 0.03661 0.22252
 C3 C 0.15323 0.03663 0.25142
 C4 C 0.14966 0.00115 0.27929
 C5 C 0.12336 -0.03373 0.22373
 C6 C 0.15032 -0.03525 0.25298
 C7 C 0.07907 0.00364 0.26473
 C8 C 0.10649 0.00254 0.29420
 H9 H 0.12393 0.05986 0.20104
 H10 H 0.17203 0.00057 0.30285
 H11 H 0.11980 -0.05671 0.20256
 H12 H 0.04749 0.00522 0.26976
 C13 C 0.40591 -0.00597 0.72572
 C14 C 0.37700 -0.03994 0.72476
 C15 C 0.35012 -0.04048 0.75423
 C16 C 0.35440 -0.00583 0.78246
 C17 C 0.37995 0.03063 0.72674
 C18 C 0.35330 0.03141 0.75668
 C19 C 0.42383 -0.00793 0.76408
 C20 C 0.39539 -0.00769 0.79570
 H21 H 0.37859 -0.06252 0.70284
 H22 H 0.33208 -0.00582 0.80640
 H23 H 0.38371 0.05447 0.70618
 H24 H 0.45544 -0.01049 0.76806
 C25 C 0.89694 0.49819 0.21530
 C26 C 0.86510 0.46742 0.21100
 C27 C 0.83904 0.46513 0.24126
 C28 C 0.84624 0.49662 0.27277
 C29 C 0.87476 0.53633 0.22071
 C30 C 0.84846 0.53623 0.25076
 C31 C 0.91578 0.48989 0.25494
 C32 C 0.88945 0.48992 0.28550
 H33 H 0.86471 0.44774 0.18644
 H34 H 0.82456 0.49607 0.29722
 H35 H 0.87986 0.56144 0.20205
 H36 H 0.94731 0.48577 0.25832
 C37 C 0.60532 0.50849 0.71868
 C38 C 0.63231 0.54372 0.71894
 C39 C 0.65772 0.54480 0.74932
 C40 C 0.65430 0.50933 0.77709
 C41 C 0.63284 0.47337 0.72027
 C42 C 0.65806 0.47315 0.75097
 C43 C 0.58471 0.50874 0.75874
 C44 C 0.61041 0.50871 0.78963
 H45 H 0.63078 0.56651 0.69693
 H46 H 0.67537 0.50972 0.80179
 H47 H 0.63102 0.44970 0.69959
 H48 H 0.55287 0.50872 0.76194
 C49 C 0.21830 0.09868 1.01173
 C50 C 0.22003 0.12517 1.04682
 C51 C 0.25062 0.15061 1.04649
 C52 C 0.27755 0.14688 1.01005
 C53 C 0.21856 0.12565 0.97621
 C54 C 0.24992 0.15039 0.97440
 C55 C 0.25846 0.07828 1.01078
 C56 C 0.28966 0.10359 1.00964
 H57 H 0.20044 0.12136 1.07169
 H58 H 0.30287 0.16748 1.00942
 H59 H 0.19667 0.12358 0.95340
 H60 H 0.26164 0.04689 1.01168
 C61 C 0.71537 0.39844 0.99550
 C62 C 0.71948 0.37420 0.96131
 C63 C 0.75179 0.34760 0.96267
 C64 C 0.77426 0.34983 0.99918
 C65 C 0.71346 0.37191 1.02895
 C66 C 0.74611 0.34533 1.03184
 C67 C 0.75353 0.41787 0.99914
 C68 C 0.78658 0.39094 1.00114
 H69 H 0.70073 0.37725 0.93590
 H70 H 0.79937 0.32885 1.00041
 H71 H 0.68999 0.37340 1.05050
 H72 H 0.75646 0.44926 0.99833
 C73 C 0.21072 0.89890 0.49692
 C74 C 0.21295 0.87152 0.46227
 C75 C 0.24493 0.84759 0.46223
 C76 C 0.27193 0.85277 0.49795
 C77 C 0.21275 0.87267 0.53299
 C78 C 0.24491 0.84887 0.53415
 C79 C 0.25025 0.92065 0.49638
 C80 C 0.28249 0.89649 0.49725
 H81 H 0.19175 0.87234 0.43870
 H82 H 0.29801 0.83303 0.49830
 H83 H 0.19119 0.87423 0.55642
 H84 H 0.25221 0.95211 0.49493
 C85 C 0.72140 0.60466 0.49861
 C86 C 0.72360 0.63111 0.53376
 C87 C 0.75398 0.65682 0.53270
 C88 C 0.77975 0.65413 0.49564
 C89 C 0.72021 0.63200 0.46351
 C90 C 0.75091 0.65745 0.46128
 C91 C 0.76224 0.58510 0.49626
 C92 C 0.79300 0.61114 0.49450
 H93 H 0.70293 0.62907 0.55797
 H94 H 0.80449 0.67539 0.49445
 H95 H 0.69775 0.62982 0.44125
 H96 H 0.76617 0.55378 0.49691
 C97 C -0.00470 0.21253 0.09434
 C98 C 0.03217 0.21880 0.11869
 C99 C 0.03160 0.25213 0.13974
 C100 C -0.00620 0.27639 0.13480
 C101 C -0.03938 0.21488 0.12297
 C102 C -0.04045 0.24846 0.14389
 C103 C -0.00838 0.24954 0.06935
 C104 C -0.00944 0.28308 0.09044
 H105 H 0.05759 0.19953 0.11751
 H106 H -0.00675 0.30265 0.15334
 H107 H -0.06257 0.19314 0.12443
 H108 H -0.01113 0.24914 0.03791
 C109 C -0.00995 0.71893 0.39310
 C110 C -0.04122 0.72051 0.36488
 C111 C -0.03904 0.75286 0.33885
 C112 C -0.00466 0.77780 0.34515
 C113 C 0.02875 0.72006 0.36991
 C114 C 0.03226 0.75101 0.34520
 C115 C -0.01178 0.75852 0.41352
 C116 C -0.00897 0.78985 0.38830
 H117 H -0.06625 0.70076 0.36571
 H118 H -0.00246 0.80288 0.32455
 H119 H 0.05177 0.69841 0.37378
 H120 H -0.01719 0.76085 0.44450
 C121 C 0.50956 0.20094 0.89062
 C122 C 0.47200 0.20645 0.86704
 C123 C 0.46931 0.24171 0.84915
 C124 C 0.50547 0.26825 0.85565
 C125 C 0.54329 0.20835 0.86216
 C126 C 0.54221 0.24392 0.84474
 C127 C 0.51063 0.23555 0.91868
 C128 C 0.50807 0.27092 0.90050
 H129 H 0.44866 0.18486 0.86603
 H130 H 0.50403 0.29637 0.83963
 H131 H 0.56814 0.18859 0.85901
 H132 H 0.51315 0.23228 0.95000
 C133 C 0.50151 0.71972 0.59829
 C134 C 0.53764 0.72094 0.62429
 C135 C 0.53808 0.75093 0.64976
 C136 C 0.50104 0.77716 0.64766
 C137 C 0.46617 0.71952 0.62597
 C138 C 0.46507 0.74975 0.65129
 C139 C 0.50015 0.76036 0.57864
 C140 C 0.49985 0.79063 0.60478
 H141 H 0.56191 0.70044 0.62144
 H142 H 0.50091 0.80142 0.66896
 H143 H 0.44271 0.69818 0.62390
 H144 H 0.50027 0.76453 0.54735
 C145 C 0.89348 1.01413 0.79636
 C146 C 0.86874 1.04743 0.78796
 C147 C 0.84979 1.04613 0.75097
 C148 C 0.85802 1.01062 0.72941
 C149 C 0.86686 0.97857 0.79217
 C150 C 0.84876 0.97623 0.75712
 C151 C 0.92233 1.01183 0.76135
 C152 C 0.90385 1.01032 0.72589
 H153 H 0.86649 1.07234 0.80713
 H154 H 0.84143 1.00862 0.70178
 H155 H 0.86452 0.95583 0.81417
 H156 H 0.95417 1.01281 0.76436
 C157 C 0.40687 0.49990 0.29033
 C158 C 0.38003 0.53548 0.28554
 C159 C 0.35856 0.53569 0.25198
 C160 C 0.36559 0.49927 0.22654
 C161 C 0.37969 0.46469 0.28691
 C162 C 0.35800 0.46402 0.25375
 C163 C 0.43212 0.49943 0.25325
 C164 C 0.41087 0.49893 0.21981
 H165 H 0.37891 0.55885 0.30660
 H166 H 0.34746 0.49923 0.19973
 H167 H 0.37996 0.44081 0.30777
 H168 H 0.46417 0.49967 0.25346
 C169 C 0.60294 0.99441 0.29475
 C170 C 0.62895 0.95962 0.28415
 C171 C 0.64466 0.96155 0.24751
 C172 C 0.63322 0.99950 0.22518
 C173 C 0.62778 1.02810 0.28898
 C174 C 0.64337 1.03217 0.25061
 C175 C 0.57167 0.99606 0.26225
 C176 C 0.58746 0.99786 0.22558
 H177 H 0.63295 0.93467 0.30329
 H178 H 0.64728 1.00202 0.19599
 H179 H 0.62986 1.05104 0.31047
 H180 H 0.54022 0.99331 0.26773
 C181 C 0.09311 0.49372 0.78437
 C182 C 0.12044 0.45869 0.78001
 C183 C 0.14287 0.45897 0.74699
 C184 C 0.13634 0.49592 0.72135
 C185 C 0.11975 0.52931 0.78164
 C186 C 0.14226 0.53124 0.74879
 C187 C 0.06889 0.49443 0.74706
 C188 C 0.09105 0.49572 0.71388
 H189 H 0.12109 0.43508 0.80114
 H190 H 0.15505 0.49670 0.69467
 H191 H 0.12010 0.55163 0.80385
 H192 H 0.03686 0.49344 0.74690
 C193 C 0.78866 0.89892 -0.00192
 C194 C 0.78799 0.86718 0.02949
 C195 C 0.75681 0.84232 0.02701
 C196 C 0.72963 0.85073 -0.00767
 C197 C 0.78741 0.87748 -0.04035
 C198 C 0.75671 0.85258 -0.04372
 C199 C 0.74808 0.91881 0.00150
 C200 C 0.71701 0.89329 -0.00134
 H201 H 0.80776 0.86737 0.05423
 H202 H 0.70460 0.82998 -0.01029
 H203 H 0.80923 0.88196 -0.06323
 H204 H 0.74461 0.94996 0.00498
 C205 C 0.29173 0.39714 0.50515
 C206 C 0.28829 0.37282 0.54243
 C207 C 0.25655 0.34834 0.54318
 C208 C 0.23130 0.35018 0.50626
 C209 C 0.29187 0.36776 0.47216
 C210 C 0.26039 0.34332 0.47254
 C211 C 0.25190 0.41810 0.50168
 C212 C 0.22002 0.39356 0.50256
 H213 H 0.30916 0.37503 0.56612
 H214 H 0.20561 0.33001 0.50660
 H215 H 0.31335 0.36842 0.44857
 H216 H 0.24970 0.44935 0.49776
 C217 C 0.28750 0.60161 -0.00524
 C218 C 0.28209 0.62849 -0.04016
 C219 C 0.24915 0.65097 -0.03864
 C220 C 0.22530 0.64625 -0.00055
 C221 C 0.28762 0.62854 0.02979
 C222 C 0.25502 0.65139 0.03301
 C223 C 0.24823 0.57882 -0.00212
 C224 C 0.21542 0.60248 0.00015
 H225 H 0.30130 0.62764 -0.06556
 H226 H 0.19903 0.66566 0.00136
 H227 H 0.31097 0.62829 0.05130
 H228 H 0.24695 0.54731 -0.00191
 C229 C 0.77896 0.10061 0.50424
 C230 C 0.78068 0.12477 0.46924
 C231 C 0.74978 0.15336 0.46653
 C232 C 0.72341 0.15291 0.50090
 C233 C 0.77906 0.12729 0.53664
 C234 C 0.74877 0.15620 0.53547
 C235 C 0.73940 0.08375 0.50416
 C236 C 0.70819 0.11260 0.50221
 H237 H 0.80337 0.12087 0.44723
 H238 H 0.69970 0.17542 0.49971
 H239 H 0.80102 0.12594 0.55955
 H240 H 0.73420 0.05273 0.50704
 C241 C 1.00362 0.78067 0.91062
 C242 C 1.03526 0.77728 0.87887
 C243 C 1.03192 0.74501 0.85623
 C244 C 0.99640 0.71913 0.86724
 C245 C 0.96442 0.77869 0.88947
 C246 C 0.96033 0.74696 0.86637
 C247 C 1.00633 0.74255 0.93343
 C248 C 1.00326 0.71017 0.91102
 H249 H 1.05980 0.79744 0.87626
 H250 H 0.99303 0.69327 0.84834
 H251 H 0.94146 0.80042 0.89333
 H252 H 1.01236 0.74131 0.96440
 C253 C 0.49983 0.28885 0.40153
 C254 C 0.53475 0.28410 0.37338
 C255 C 0.53122 0.25334 0.34857
 C256 C 0.49225 0.23072 0.35361
 C257 C 0.46357 0.29169 0.37562
 C258 C 0.45895 0.26150 0.35065
 C259 C 0.49637 0.24908 0.42198
 C260 C 0.49304 0.21843 0.39692
 H261 H 0.56113 0.30188 0.37493
 H262 H 0.48907 0.20595 0.33317
 H263 H 0.44372 0.31645 0.37677
 H264 H 0.49761 0.24566 0.45333
 C265 C 1.01034 0.28920 0.58648
 C266 C 0.97282 0.28741 0.61161
 C267 C 0.96975 0.25463 0.63414
 C268 C 1.00523 0.22665 0.62974
 C269 C 1.04439 0.28423 0.61484
 C270 C 1.04229 0.25180 0.63766
 C271 C 1.00976 0.25154 0.56303
 C272 C 1.00656 0.21853 0.58515
 H273 H 0.95055 0.31014 0.61117
 H274 H 1.00314 0.20056 0.64886
 H275 H 1.06791 0.30550 0.61715
 H276 H 1.00970 0.25120 0.53145
 C277 C 0.50211 0.77425 0.08332
 C278 C 0.46694 0.77377 0.11149
 C279 C 0.46476 0.74134 0.13464
 C280 C 0.49902 0.71236 0.12795
 C281 C 0.53815 0.76856 0.10867
 C282 C 0.53710 0.73683 0.13227
 C283 C 0.49849 0.73623 0.06058
 C284 C 0.49660 0.70350 0.08360
 H285 H 0.44525 0.79703 0.11230
 H286 H 0.49782 0.68657 0.14757
 H287 H 0.56222 0.78941 0.10892
 H288 H 0.49630 0.73544 0.02911
 O289 O -0.01240 0.97760 0.89221
 O290 O 0.05093 1.00655 0.89237
 O291 O -0.00294 0.88628 0.97564
 O292 O 0.01248 0.87821 1.03749
 O293 O -0.10393 0.96545 0.98383
 O294 O -0.11377 1.02860 1.00021
 O295 O 0.08458 0.99440 1.08636
 O296 O 0.09856 0.93618 1.05346
 O297 O 0.08000 1.08258 1.00328
 O298 O 0.04728 1.09490 0.94451
 O299 O -0.00864 1.07292 1.08689
 O300 O -0.06708 1.03252 1.09530
 O301 O 0.02667 1.01186 1.11545
 O302 O -0.04170 0.98366 1.11415
 O303 O 0.01363 1.10548 1.03319
 O304 O -0.00773 1.10732 0.96242
 O305 O 0.11329 1.02940 1.02582
 O306 O 0.12371 0.96451 1.00204
 O307 O -0.06998 1.00099 0.91768
 O308 O -0.08616 1.05932 0.95741
 O309 O -0.07176 0.91198 1.00727
 O310 O -0.03555 0.90481 1.06862
 O311 O 0.02190 0.91811 0.92252
 O312 O 0.08078 0.95839 0.91785
 Zr313 Zr 0.02517 0.97625 0.94002
 O314 O 0.05774 1.01377 0.97526
 Zr315 Zr -0.01350 0.93035 1.01646
 O316 O 0.01914 0.96447 1.05537
 Zr317 Zr -0.05932 1.00755 0.97831
 O318 O -0.03028 1.04489 1.01720
 Zr319 Zr 0.07062 0.98523 1.02792
 O320 O 0.04117 0.94591 0.99102
 Zr321 Zr 0.02328 1.06208 0.99143
 O322 O -0.00741 1.02748 0.95095
 Zr323 Zr -0.01350 1.01494 1.06842
 O324 O -0.04788 0.97907 1.03187
 O325 O -0.02822 0.95740 0.96411
 O326 O 0.03923 1.03517 1.04386
 C327 C -0.04807 0.98937 0.88903
 C328 C 0.01061 0.88728 0.94059
 C329 C -0.10298 0.93013 0.99636
 C330 C 0.06375 1.00351 1.11626
 C331 C 0.11127 1.06525 1.01513
 C332 C 0.00129 1.10415 1.06861
 H333 H 0.08182 1.02175 0.96085
 H334 H -0.04773 1.06733 1.02279
 H335 H -0.04352 0.94016 0.94677
 H336 H 0.02547 0.94883 1.07884
 H337 H 0.09069 0.91321 1.03801
 H338 H 0.03381 0.88574 1.05550
 H339 H -0.03137 1.11376 0.97826
 H340 H -0.06880 1.06979 0.93649
 H341 H 0.12783 0.97857 0.97710
 H342 H 0.09073 0.93775 0.93559
 H343 H -0.07910 1.05298 1.07870
 H344 H -0.11361 1.02302 1.02856
 H345 H 0.03670 1.03171 0.89013
 H346 H 0.06569 1.07766 0.93020
 H347 H -0.05894 0.92023 1.07670
 H348 H -0.02428 0.96167 1.12160
 O349 O 0.58118 0.58847 0.49481
 O350 O 0.53961 0.59744 0.43809
 O351 O 0.49526 0.58043 0.58613
 O352 O 0.44319 0.54209 0.60133
 O353 O 0.59140 0.49815 0.58011
 O354 O 0.60354 0.44128 0.54029
 O355 O 0.39612 0.46819 0.49262
 O356 O 0.38939 0.53139 0.52062
 O357 O 0.47356 0.48815 0.39589
 O358 O 0.54134 0.51609 0.38959
 O359 O 0.49535 0.39284 0.47373
 O360 O 0.52303 0.38945 0.54117
 O361 O 0.43191 0.41502 0.51091
 O362 O 0.47251 0.40382 0.56733
 O363 O 0.51272 0.42689 0.41920
 O364 O 0.56914 0.46796 0.40563
 O365 O 0.41798 0.50450 0.42965
 O366 O 0.40435 0.56063 0.46568
 O367 O 0.61616 0.53525 0.51465
 O368 O 0.62363 0.47172 0.49172
 O369 O 0.53632 0.51763 0.61306
 O370 O 0.47294 0.48811 0.61838
 O371 O 0.51543 0.61323 0.53167
 O372 O 0.49042 0.61726 0.46850
 Zr373 Zr 0.52248 0.56897 0.49040
 O374 O 0.48682 0.53445 0.45468
 Zr375 Zr 0.49287 0.52133 0.56983
 O376 O 0.45663 0.48395 0.53735
 Zr377 Zr 0.57307 0.49202 0.52195
 O378 O 0.54039 0.45420 0.48663
 Zr379 Zr 0.43818 0.51281 0.48655
 O380 O 0.47105 0.55186 0.52102
 Zr381 Zr 0.51842 0.48461 0.43797
 O382 O 0.55582 0.52118 0.47055
 Zr383 Zr 0.48968 0.43595 0.51712
 O384 O 0.52461 0.47080 0.55415
 O385 O 0.54292 0.54146 0.54063
 O386 O 0.46833 0.46336 0.46695
 C387 C 0.61355 0.57090 0.50347
 C388 C 0.50389 0.61192 0.56730
 C389 C 0.57276 0.50733 0.61149
 C390 C 0.39935 0.43211 0.50238
 C391 C 0.43653 0.49641 0.39808
 C392 C 0.50452 0.39511 0.43734
 H393 H 0.47864 0.55024 0.43192
 H394 H 0.55742 0.43205 0.47904
 H395 H 0.55928 0.55884 0.55686
 H396 H 0.43386 0.47584 0.55368
 H397 H 0.39808 0.55454 0.53540
 H398 H 0.41963 0.52814 0.59177
 H399 H 0.58338 0.44790 0.42094
 H400 H 0.62195 0.48257 0.46496
 H401 H 0.42110 0.57599 0.44756
 H402 H 0.46385 0.61602 0.48071
 H403 H 0.54639 0.38530 0.52420
 H404 H 0.58707 0.42885 0.56084
 H405 H 0.56069 0.58134 0.42614
 H406 H 0.52393 0.53885 0.38499
 H407 H 0.48806 0.46337 0.61823
 H408 H 0.45173 0.41891 0.58094
 O409 O 0.40207 -0.06203 0.49496
 O410 O 0.43258 -0.06856 0.43312
 O411 O 0.49983 -0.08628 0.57195
 O412 O 0.55631 -0.05968 0.58845
 O413 O 0.41954 0.01363 0.59066
 O414 O 0.41541 0.07631 0.56340
 O415 O 0.60695 0.02043 0.47816
 O416 O 0.60476 -0.04501 0.49417
 O417 O 0.51541 0.03741 0.39544
 O418 O 0.44789 0.02532 0.39251
 O419 O 0.52596 0.11600 0.48861
 O420 O 0.51012 0.11234 0.55888
 O421 O 0.58798 0.07542 0.50975
 O422 O 0.55746 0.08174 0.57472
 O423 O 0.49213 0.09836 0.43455
 O424 O 0.42495 0.06673 0.42713
 O425 O 0.56726 0.00002 0.41517
 O426 O 0.57258 -0.06450 0.44428
 O427 O 0.38182 -0.00740 0.52650
 O428 O 0.38701 0.06175 0.51214
 O429 O 0.47224 -0.02058 0.61369
 O430 O 0.54336 -0.00410 0.61169
 O431 O 0.46569 -0.10356 0.51784
 O432 O 0.48224 -0.09952 0.45018
 Zr433 Zr 0.46251 -0.05216 0.48437
 O434 O 0.49940 -0.01829 0.44828
 Zr435 Zr 0.51018 -0.02569 0.56438
 O436 O 0.55033 0.00830 0.53103
 Zr437 Zr 0.43360 0.02606 0.53273
 O438 O 0.47033 0.06330 0.49976
 Zr439 Zr 0.55525 -0.01315 0.47407
 O440 O 0.51948 -0.05041 0.50881
 Zr441 Zr 0.47824 0.03926 0.44431
 O442 O 0.43809 0.00381 0.47605
 Zr443 Zr 0.52763 0.06504 0.52341
 O444 O 0.48897 0.03194 0.55988
 O445 O 0.45418 -0.03075 0.54039
 O446 O 0.53534 0.04417 0.46690
 C447 C 0.37531 -0.04065 0.51079
 C448 C 0.48271 -0.11168 0.55021
 C449 C 0.43840 -0.00376 0.61790
 C450 C 0.61424 0.05395 0.49297
 C451 C 0.54795 0.01936 0.38928
 C452 C 0.51009 0.12358 0.45547
 H453 H 0.50076 -0.03071 0.42242
 H454 H 0.45777 0.08932 0.49874
 H455 H 0.43659 -0.04761 0.55637
 H456 H 0.57639 0.00832 0.54392
 H457 H 0.59440 -0.06600 0.51135
 H458 H 0.58051 -0.05361 0.57330
 H459 H 0.42109 0.08998 0.44365
 H460 H 0.37956 0.05173 0.48622
 H461 H 0.55334 -0.06944 0.42331
 H462 H 0.50869 -0.10690 0.46002
 H463 H 0.48490 0.12259 0.54851
 H464 H 0.43767 0.08356 0.58047
 H465 H 0.41593 -0.04605 0.42542
 H466 H 0.45215 -0.00274 0.38760
 H467 H 0.53179 0.02145 0.61873
 H468 H 0.57757 0.06160 0.58057
 O469 O -0.09411 0.42806 1.00016
 O470 O -0.05893 0.40990 0.94213
 O471 O -0.00090 0.42182 1.08632
 O472 O 0.05471 0.45106 1.10003
 O473 O -0.08207 0.52069 1.07941
 O474 O -0.08306 0.57789 1.03949
 O475 O 0.11368 0.50543 0.98187
 O476 O 0.10748 0.44410 1.01154
 O477 O 0.02904 0.50491 0.89103
 O478 O -0.04118 0.49023 0.88702
 O479 O 0.03093 0.60129 0.96538
 O480 O 0.01419 0.61481 1.03007
 O481 O 0.09259 0.56547 1.00054
 O482 O 0.05373 0.58545 1.06073
 O483 O 0.00267 0.57181 0.91337
 O484 O -0.06225 0.54087 0.90648
 O485 O 0.08101 0.47710 0.92247
 O486 O 0.08027 0.41626 0.96145
 O487 O -0.11546 0.48834 1.01774
 O488 O -0.10862 0.55302 0.99085
 O489 O -0.03150 0.49064 1.11108
 O490 O 0.03885 0.51037 1.11139
 O491 O -0.03049 0.39262 1.03478
 O492 O -0.01252 0.38184 0.96930
 Zr493 Zr -0.03261 0.43582 0.99129
 O494 O 0.00796 0.46121 0.95198
 Zr495 Zr 0.01011 0.47884 1.06691
 O496 O 0.05292 0.50539 1.03077
 Zr497 Zr -0.06388 0.52225 1.02101
 O498 O -0.02449 0.55150 0.98348
 Zr499 Zr 0.06168 0.47223 0.98036
 O500 O 0.02257 0.44291 1.01870
 Zr501 Zr -0.01255 0.51642 0.93488
 O502 O -0.05565 0.48893 0.97043
 Zr503 Zr 0.03088 0.55892 1.01012
 O504 O -0.01059 0.53421 1.04992
 O505 O -0.04422 0.46825 1.04093
 O506 O 0.04260 0.52669 0.96016
 C507 C -0.12163 0.45248 1.00916
 C508 C -0.01571 0.39218 1.06918
 C509 C -0.06547 0.50736 1.11022
 C510 C 0.11995 0.54117 0.99061
 C511 C 0.06381 0.48997 0.89184
 C512 C 0.01752 0.60143 0.93036
 H513 H 0.01154 0.44387 0.92938
 H514 H -0.03677 0.57667 0.97619
 H515 H -0.06300 0.45454 1.05852
 H516 H 0.07773 0.50838 1.04552
 H517 H 0.09465 0.42552 1.02986
 H518 H 0.08008 0.45523 1.08616
 H519 H -0.06934 0.56527 0.92007
 H520 H -0.11328 0.53877 0.96632
 H521 H 0.06502 0.40913 0.93807
 H522 H 0.01494 0.37857 0.97859
 H523 H -0.01377 0.61873 1.02272
 H524 H -0.06301 0.58743 1.05803
 H525 H -0.07493 0.43046 0.92934
 H526 H -0.03151 0.46310 0.88491
 H527 H 0.02531 0.53589 1.11352
 H528 H 0.07544 0.56880 1.07060
 O529 O 0.03189 0.39802 0.52362
 O530 O 0.01884 0.39086 0.45631
 O531 O 0.12073 0.49301 0.51400
 O532 O 0.12062 0.55476 0.49280
 O533 O 0.03166 0.49327 0.60370
 O534 O -0.03858 0.51238 0.60276
 O535 O 0.00928 0.58319 0.40898
 O536 O 0.07522 0.55611 0.40696
 O537 O -0.06747 0.48873 0.40661
 O538 O -0.07236 0.42726 0.44727
 O539 O -0.08408 0.57557 0.49207
 O540 O -0.04751 0.59111 0.55459
 O541 O -0.02202 0.61136 0.46050
 O542 O -0.00646 0.62198 0.52524
 O543 O -0.10449 0.51806 0.46658
 O544 O -0.10234 0.45172 0.49070
 O545 O -0.01324 0.51862 0.38092
 O546 O 0.05346 0.50285 0.37917
 O547 O 0.00267 0.42712 0.57581
 O548 O -0.05833 0.45849 0.58311
 O549 O 0.08538 0.52224 0.57592
 O550 O 0.08556 0.58302 0.53924
 O551 O 0.09893 0.43372 0.49393
 O552 O 0.06780 0.41815 0.43361
 Zr553 Zr 0.03845 0.44317 0.48197
 O554 O 0.00164 0.47150 0.44138
 Zr555 Zr 0.06979 0.52772 0.51707
 O556 O 0.03363 0.55968 0.47870
 Zr557 Zr -0.00790 0.48424 0.55697
 O558 O -0.04759 0.51317 0.51952
 Zr559 Zr 0.02424 0.52704 0.42822
 O560 O 0.06405 0.49662 0.46467
 Zr561 Zr -0.05378 0.48272 0.46674
 O562 O -0.01823 0.45085 0.50652
 Zr563 Zr -0.02318 0.56708 0.50306
 O564 O 0.01495 0.53968 0.54387
 O565 O 0.04764 0.47335 0.53333
 O566 O -0.03226 0.53756 0.45082
 C567 C 0.01680 0.39741 0.55814
 C568 C 0.12631 0.45720 0.50489
 C569 C 0.06657 0.50828 0.60535
 C570 C -0.00779 0.61200 0.42574
 C571 C -0.04752 0.50322 0.37786
 C572 C -0.11088 0.55288 0.47846
 H573 H -0.00069 0.45518 0.41790
 H574 H -0.07310 0.51617 0.53338
 H575 H 0.06500 0.45843 0.55117
 H576 H 0.04634 0.58494 0.47259
 H577 H 0.09845 0.54173 0.41713
 H578 H 0.11175 0.57397 0.47307
 H579 H -0.10973 0.46439 0.51551
 H580 H -0.06889 0.43988 0.56387
 H581 H 0.04881 0.47442 0.37964
 H582 H 0.08600 0.43831 0.42313
 H583 H -0.07029 0.57479 0.56256
 H584 H -0.02585 0.53807 0.60631
 H585 H -0.00899 0.38734 0.46468
 H586 H -0.05611 0.42024 0.42428
 H587 H 0.06557 0.58992 0.55926
 H588 H 0.02197 0.62544 0.51930
 O589 O 0.40933 1.06461 0.01038
 O590 O 0.44031 1.07370 0.07324
 O591 O 0.50904 1.08499 -0.06588
 O592 O 0.56931 1.05935 -0.07622
 O593 O 0.43229 0.98694 -0.08581
 O594 O 0.42673 0.92376 -0.05295
 O595 O 0.61437 0.98370 0.03084
 O596 O 0.60913 1.05145 0.01187
 O597 O 0.52122 0.97364 0.11601
 O598 O 0.44774 0.99027 0.11216
 O599 O 0.52822 0.88724 0.02650
 O600 O 0.51604 0.88876 -0.04476
 O601 O 0.59419 0.92678 0.00385
 O602 O 0.56638 0.91408 -0.05852
 O603 O 0.49740 0.91090 0.08053
 O604 O 0.43446 0.93847 0.08948
 O605 O 0.57730 1.00123 0.09166
 O606 O 0.58053 1.06331 0.07084
 O607 O 0.39062 1.01041 -0.02249
 O608 O 0.39304 0.94349 -0.00649
 O609 O 0.48753 1.01925 -0.10566
 O610 O 0.55613 1.00472 -0.10185
 O611 O 0.47039 1.10491 -0.01528
 O612 O 0.48625 1.10715 0.05193
 Zr613 Zr 0.46969 1.05626 0.02160
 O614 O 0.50656 1.02512 0.05990
 Zr615 Zr 0.52113 1.02587 -0.05516
 O616 O 0.55902 0.99194 -0.02056
 Zr617 Zr 0.44230 0.97654 -0.02552
 O618 O 0.47653 0.94162 0.01212
 Zr619 Zr 0.56261 1.01685 0.03482
 O620 O 0.52782 1.05349 -0.00097
 Zr621 Zr 0.48402 0.96868 0.06664
 O622 O 0.44475 1.00091 0.03086
 Zr623 Zr 0.53424 0.93646 -0.01048
 O624 O 0.49886 0.96877 -0.05008
 O625 O 0.46391 1.03250 -0.03385
 O626 O 0.54116 0.96053 0.04470
 C627 C 0.38341 1.04338 -0.00649
 C628 C 0.48897 1.11086 -0.04730
 C629 C 0.45424 1.00292 -0.11233
 C630 C 0.62084 0.94924 0.01817
 C631 C 0.55697 0.98605 0.11934
 C632 C 0.51271 0.88330 0.06062
 H633 H 0.50848 1.03906 0.08496
 H634 H 0.46317 0.91611 0.01466
 H635 H 0.44684 1.04823 -0.05129
 H636 H 0.58512 0.99064 -0.03362
 H637 H 0.59721 1.07600 0.00204
 H638 H 0.59266 1.05204 -0.06059
 H639 H 0.42432 0.92162 0.06853
 H640 H 0.38740 0.95163 0.02060
 H641 H 0.56133 1.08458 0.06665
 H642 H 0.51131 1.11657 0.04014
 H643 H 0.49065 0.87920 -0.03389
 H644 H 0.44789 0.91804 -0.07216
 H645 H 0.42108 1.05293 0.07991
 H646 H 0.46124 1.01295 0.12372
 H647 H 0.54754 0.97759 -0.10659
 H648 H 0.58422 0.93493 -0.06807
 O649 O 0.57037 0.49746 -0.08824
 O650 O 0.58128 0.55417 -0.04990
 O651 O 0.57719 0.40584 -0.00154
 O652 O 0.54739 0.38830 0.05257
 O653 O 0.48324 0.40809 -0.08603
 O654 O 0.42302 0.44294 -0.09044
 O655 O 0.47031 0.49990 0.10908
 O656 O 0.53591 0.47394 0.10984
 O657 O 0.47352 0.59267 0.02969
 O658 O 0.48695 0.60264 -0.03475
 O659 O 0.38238 0.50403 0.02720
 O660 O 0.37952 0.43948 -0.00047
 O661 O 0.41571 0.47217 0.08279
 O662 O 0.40829 0.41128 0.04341
 O663 O 0.40718 0.56009 0.00102
 O664 O 0.44480 0.57465 -0.06360
 O665 O 0.50222 0.56240 0.08142
 O666 O 0.56359 0.52704 0.08662
 O667 O 0.51343 0.47391 -0.11401
 O668 O 0.44587 0.49540 -0.11142
 O669 O 0.51219 0.37703 -0.03487
 O670 O 0.48928 0.37126 0.03374
 O671 O 0.60588 0.46250 -0.02160
 O672 O 0.60715 0.52899 -0.00299
 Zr673 Zr 0.55734 0.50159 -0.02762
 O674 O 0.52345 0.53608 0.01090
 Zr675 Zr 0.51808 0.42007 0.00824
 O676 O 0.48425 0.45092 0.04958
 Zr677 Zr 0.47560 0.46528 -0.06623
 O678 O 0.43852 0.49703 -0.02863
 Zr679 Zr 0.51082 0.50463 0.06234
 O680 O 0.54795 0.47116 0.02533
 Zr681 Zr 0.46734 0.54844 -0.01226
 O682 O 0.50329 0.51849 -0.05326
 Zr683 Zr 0.43021 0.46585 0.02378
 O684 O 0.46263 0.43170 -0.01625
 O685 O 0.53046 0.44976 -0.04350
 O686 O 0.45558 0.51898 0.03977
 C687 C 0.54872 0.48715 -0.11727
 C688 C 0.60742 0.42642 -0.01081
 C689 C 0.49747 0.37767 -0.06934
 C690 C 0.43485 0.48640 0.11141
 C691 C 0.48850 0.59281 0.06408
 C692 C 0.37897 0.53938 0.01587
 H693 H 0.53828 0.56029 0.01600
 H694 H 0.41328 0.50236 -0.04202
 H695 H 0.54727 0.43448 -0.06157
 H696 H 0.48073 0.43499 0.07347
 H697 H 0.55773 0.45792 0.09908
 H698 H 0.53920 0.39964 0.07777
 H699 H 0.41912 0.56225 -0.06940
 H700 H 0.45855 0.52129 -0.11394
 H701 H 0.57263 0.54911 0.07015
 H702 H 0.61027 0.51773 0.02346
 H703 H 0.37247 0.45424 -0.02431
 H704 H 0.41251 0.42362 -0.07148
 H705 H 0.56072 0.56595 -0.06672
 H706 H 0.51604 0.60296 -0.03201
 H707 H 0.46499 0.36652 0.01855
 H708 H 0.42366 0.40317 0.06653
 O709 O 0.07149 -0.08592 0.51453
 O710 O 0.03456 -0.08932 0.57672
 O711 O -0.01981 -0.08942 0.43079
 O712 O -0.07755 -0.05477 0.42166
 O713 O 0.06984 -0.00103 0.41851
 O714 O 0.08427 0.05837 0.45583
 O715 O -0.11813 0.02900 0.51968
 O716 O -0.12280 -0.03899 0.50297
 O717 O -0.03134 0.01861 0.61534
 O718 O 0.03964 -0.00944 0.61395
 O719 O -0.01733 0.10801 0.52861
 O720 O 0.00457 0.10533 0.45688
 O721 O -0.08351 0.08211 0.49919
 O722 O -0.04964 0.09145 0.43988
 O723 O 0.00373 0.07866 0.58432
 O724 O 0.05993 0.04375 0.59633
 O725 O -0.08945 0.00280 0.58657
 O726 O -0.10375 -0.05561 0.56286
 O727 O 0.10247 -0.03493 0.48456
 O728 O 0.11149 0.02962 0.50092
 O729 O 0.01314 -0.02751 0.39525
 O730 O -0.05114 -0.00235 0.39358
 O731 O 0.00598 -0.11477 0.48655
 O732 O -0.01354 -0.11536 0.55199
 Zr733 Zr 0.01295 -0.06723 0.52317
 O734 O -0.02186 -0.03112 0.55875
 Zr735 Zr -0.02531 -0.02896 0.44316
 O736 O -0.05926 0.01150 0.47515
 Zr737 Zr 0.05784 0.00733 0.47910
 O738 O 0.02733 0.04678 0.51550
 Zr739 Zr -0.07332 -0.01282 0.52967
 O740 O -0.04181 -0.05492 0.49662
 Zr741 Zr 0.00979 0.02026 0.56852
 O742 O 0.04624 -0.01708 0.53488
 Zr743 Zr -0.02612 0.06168 0.48874
 O744 O 0.00559 0.02405 0.45086
 O745 O 0.02797 -0.04433 0.46864
 O746 O -0.04294 0.03840 0.54255
 C747 C 0.10210 -0.06922 0.49983
 C748 C -0.00721 -0.11810 0.45193
 C749 C 0.04823 -0.01423 0.39060
 C750 C -0.11581 0.06484 0.50857
 C751 C -0.06880 0.01203 0.61634
 C752 C -0.00590 0.10883 0.56442
 H753 H -0.02835 -0.04525 0.58319
 H754 H 0.04425 0.06979 0.51990
 H755 H 0.04367 -0.06224 0.45211
 H756 H -0.08310 0.01791 0.45986
 H757 H -0.11412 -0.06471 0.49306
 H758 H -0.10023 -0.03933 0.43141
 H759 H 0.07722 0.05456 0.57560
 H760 H 0.11250 0.02185 0.52874
 H761 H -0.08655 -0.07888 0.56335
 H762 H -0.04011 -0.11873 0.54057
 H763 H 0.02734 0.11372 0.47271
 H764 H 0.06666 0.06805 0.43494
 H765 H 0.05857 -0.07423 0.58309
 H766 H 0.02116 -0.02882 0.62533
 H767 H -0.03919 0.02388 0.39107
 H768 H -0.06803 0.07338 0.42691
 O769 O 0.72996 0.13431 0.27413
 O770 O 0.79206 0.13334 0.24187
 O771 O 0.73631 0.21862 0.36032
 O772 O 0.75375 0.28028 0.36449
 O773 O 0.63715 0.22017 0.28186
 O774 O 0.62630 0.23689 0.21833
 O775 O 0.82353 0.32973 0.24536
 O776 O 0.83879 0.29929 0.30376
 O777 O 0.82117 0.24295 0.16076
 O778 O 0.78691 0.18425 0.15081
 O779 O 0.72759 0.32536 0.16803
 O780 O 0.67256 0.33548 0.20810
 O781 O 0.76449 0.35700 0.22912
 O782 O 0.69486 0.35247 0.25841
 O783 O 0.75666 0.27480 0.13648
 O784 O 0.73244 0.20437 0.13654
 O785 O 0.85384 0.26927 0.21196
 O786 O 0.86380 0.24622 0.27851
 O787 O 0.67436 0.15467 0.24315
 O788 O 0.65412 0.19556 0.18750
 O789 O 0.66887 0.24795 0.33295
 O790 O 0.70392 0.31045 0.33719
 O791 O 0.76801 0.16874 0.33010
 O792 O 0.82394 0.16098 0.28516
 Zr793 Zr 0.76736 0.18241 0.27002
 O794 O 0.79863 0.21772 0.23020
 Zr795 Zr 0.72692 0.25802 0.31377
 O796 O 0.75859 0.29717 0.27762
 Zr797 Zr 0.68168 0.21667 0.23832
 O798 O 0.70952 0.25629 0.19931
 Zr799 Zr 0.81082 0.27118 0.25673
 O800 O 0.78242 0.23438 0.29813
 Zr801 Zr 0.76383 0.23253 0.18153
 O802 O 0.73466 0.19151 0.21844
 Zr803 Zr 0.72533 0.30853 0.22725
 O804 O 0.69200 0.27132 0.26472
 O805 O 0.71335 0.20466 0.28873
 O806 O 0.77870 0.28571 0.20679
 C807 C 0.69591 0.12802 0.25947
 C808 C 0.75414 0.18551 0.36075
 C809 C 0.63784 0.23478 0.31634
 C810 C 0.80181 0.35898 0.23623
 C811 C 0.85231 0.25637 0.17691
 C812 C 0.74087 0.30899 0.13694
 H813 H 0.82290 0.20361 0.22245
 H814 H 0.69192 0.26136 0.17696
 H815 H 0.69881 0.18722 0.30693
 H816 H 0.76440 0.32116 0.29233
 H817 H 0.83089 0.28498 0.32773
 H818 H 0.77350 0.29981 0.35591
 H819 H 0.70976 0.22107 0.12923
 H820 H 0.67318 0.17760 0.17495
 H821 H 0.86983 0.22251 0.26334
 H822 H 0.83490 0.17920 0.30455
 H823 H 0.65705 0.31537 0.19451
 H824 H 0.62497 0.26487 0.22509
 H825 H 0.77700 0.12980 0.21750
 H826 H 0.80402 0.16967 0.16908
 H827 H 0.67964 0.31695 0.32253
 H828 H 0.71292 0.36250 0.27857
 O829 O 0.76474 0.67362 0.66941
 O830 O 0.82193 0.66413 0.70704
 O831 O 0.67230 0.68215 0.75289
 O832 O 0.66104 0.72153 0.80861
 O833 O 0.67838 0.76310 0.65982
 O834 O 0.71679 0.82021 0.64681
 O835 O 0.77069 0.79074 0.85168
 O836 O 0.75055 0.72742 0.86139
 O837 O 0.86748 0.77846 0.77160
 O838 O 0.87418 0.75201 0.70694
 O839 O 0.78447 0.87009 0.75530
 O840 O 0.71964 0.87531 0.73216
 O841 O 0.74991 0.84447 0.81829
 O842 O 0.68860 0.85255 0.77659
 O843 O 0.84055 0.83835 0.73704
 O844 O 0.85129 0.79677 0.67662
 O845 O 0.83640 0.75547 0.82606
 O846 O 0.79327 0.69546 0.83776
 O847 O 0.74650 0.72747 0.63474
 O848 O 0.76729 0.79303 0.62783
 O849 O 0.64539 0.74662 0.71553
 O850 O 0.64111 0.77046 0.78052
 O851 O 0.72833 0.64911 0.73657
 O852 O 0.79579 0.64638 0.75805
 Zr853 Zr 0.77060 0.69345 0.72666
 O854 O 0.80826 0.72848 0.76005
 Zr855 Zr 0.69036 0.74029 0.75719
 O856 O 0.72422 0.77630 0.79299
 Zr857 Zr 0.73740 0.77051 0.67737
 O858 O 0.77250 0.80917 0.70953
 Zr859 Zr 0.77695 0.74789 0.80909
 O860 O 0.74027 0.70968 0.77768
 Zr861 Zr 0.82307 0.77984 0.72935
 O862 O 0.78995 0.74203 0.69368
 Zr863 Zr 0.74258 0.82539 0.76075
 O864 O 0.70522 0.79112 0.72577
 O865 O 0.71919 0.72063 0.70730
 O866 O 0.79465 0.79874 0.77998
 C867 C 0.75688 0.69150 0.63744
 C868 C 0.69160 0.65066 0.74638
 C869 C 0.64660 0.75550 0.67913
 C870 C 0.75951 0.82640 0.84968
 C871 C 0.86713 0.76757 0.80737
 C872 C 0.82135 0.86927 0.74652
 H873 H 0.83188 0.71307 0.76720
 H874 H 0.77920 0.83202 0.69308
 H875 H 0.70251 0.70334 0.69128
 H876 H 0.70787 0.78333 0.81588
 H877 H 0.72237 0.73514 0.86065
 H878 H 0.67880 0.70253 0.82156
 H879 H 0.83921 0.82151 0.66766
 H880 H 0.79448 0.78235 0.62868
 H881 H 0.81875 0.68663 0.82654
 H882 H 0.78225 0.64538 0.78369
 H883 H 0.73000 0.87520 0.70514
 H884 H 0.69715 0.83304 0.66400
 H885 H 0.83566 0.68226 0.68893
 H886 H 0.87688 0.72666 0.72061
 H887 H 0.63986 0.79593 0.76684
 H888 H 0.67986 0.84139 0.80188
 O889 O 0.33808 0.17079 0.75171
 O890 O 0.34971 0.21177 0.69459
 O891 O 0.32796 0.25690 0.84155
 O892 O 0.28884 0.30973 0.85268
 O893 O 0.24381 0.16355 0.83505
 O894 O 0.18747 0.15150 0.79313
 O895 O 0.21818 0.35580 0.73806
 O896 O 0.27857 0.36223 0.77129
 O897 O 0.24033 0.27768 0.64669
 O898 O 0.27008 0.21004 0.64387
 O899 O 0.14120 0.25713 0.72118
 O900 O 0.13539 0.23168 0.78976
 O901 O 0.16384 0.32117 0.75654
 O902 O 0.14895 0.28223 0.81415
 O903 O 0.17839 0.24036 0.66846
 O904 O 0.21909 0.18376 0.65799
 O905 O 0.25734 0.33206 0.68020
 O906 O 0.31463 0.34404 0.72041
 O907 O 0.28377 0.13701 0.77197
 O908 O 0.22028 0.13044 0.74614
 O909 O 0.26433 0.21753 0.86728
 O910 O 0.23284 0.27926 0.86979
 O911 O 0.36249 0.23726 0.78800
 O912 O 0.36951 0.25935 0.72451
 Zr913 Zr 0.31914 0.22925 0.74554
 O914 O 0.28581 0.26459 0.70772
 Zr915 Zr 0.26852 0.25989 0.82277
 O916 O 0.23179 0.29564 0.78784
 Zr917 Zr 0.23994 0.18050 0.77587
 O918 O 0.20313 0.21278 0.73805
 Zr919 Zr 0.26307 0.31308 0.73778
 O920 O 0.30113 0.28052 0.77440
 Zr921 Zr 0.23579 0.23365 0.68988
 O922 O 0.27120 0.19662 0.72489
 Zr923 Zr 0.18361 0.26351 0.76620
 O924 O 0.21749 0.22915 0.80564
 O925 O 0.28960 0.21000 0.79539
 O926 O 0.21366 0.28353 0.71686
 C927 C 0.32014 0.13895 0.76112
 C928 C 0.36036 0.24833 0.82356
 C929 C 0.25317 0.18180 0.86633
 C930 C 0.18118 0.35306 0.74631
 C931 C 0.24921 0.31408 0.64873
 C932 C 0.14535 0.24880 0.68480
 H933 H 0.30268 0.27226 0.68536
 H934 H 0.18080 0.19619 0.73001
 H935 H 0.30665 0.19387 0.81247
 H936 H 0.22291 0.31854 0.80288
 H937 H 0.30060 0.35408 0.78842
 H938 H 0.27270 0.33229 0.84421
 H939 H 0.19872 0.16973 0.67338
 H940 H 0.23222 0.13179 0.71974
 H941 H 0.32750 0.32981 0.69880
 H942 H 0.36721 0.28638 0.73421
 H943 H 0.13188 0.20815 0.77363
 H944 H 0.17439 0.16818 0.81282
 H945 H 0.33376 0.19094 0.68256
 H946 H 0.29223 0.22813 0.63847
 H947 H 0.20757 0.26484 0.86834
 H948 H 0.16438 0.30203 0.82829
 O949 O 0.17451 0.74115 0.33254
 O950 O 0.21678 0.68477 0.34313
 O951 O 0.26106 0.83300 0.32459
 O952 O 0.31438 0.84609 0.28717
 O953 O 0.16663 0.82641 0.24248
 O954 O 0.15530 0.78579 0.18542
 O955 O 0.36217 0.73396 0.21249
 O956 O 0.36882 0.76511 0.27447
 O957 O 0.28462 0.63960 0.23342
 O958 O 0.21748 0.63397 0.25994
 O959 O 0.26262 0.72016 0.13743
 O960 O 0.23618 0.78773 0.13489
 O961 O 0.32676 0.75497 0.16025
 O962 O 0.28722 0.81233 0.14902
 O963 O 0.24758 0.66488 0.17131
 O964 O 0.18849 0.65236 0.21301
 O965 O 0.33904 0.67352 0.25173
 O966 O 0.35243 0.71188 0.30672
 O967 O 0.14070 0.76300 0.27956
 O968 O 0.13457 0.73741 0.21712
 O969 O 0.22092 0.85920 0.26326
 O970 O 0.28454 0.86341 0.23188
 O971 O 0.24112 0.77874 0.35784
 O972 O 0.26555 0.71460 0.36262
 Zr973 Zr 0.23430 0.73651 0.31397
 O974 O 0.27049 0.70016 0.27954
 Zr975 Zr 0.26467 0.81551 0.26603
 O976 O 0.30152 0.78237 0.22902
 Zr977 Zr 0.18485 0.76791 0.23671
 O978 O 0.21812 0.73213 0.19915
 Zr979 Zr 0.31958 0.73126 0.25779
 O980 O 0.28613 0.76640 0.29664
 Zr981 Zr 0.23999 0.68305 0.22939
 O982 O 0.20204 0.71632 0.26593
 Zr983 Zr 0.26887 0.76251 0.18109
 O984 O 0.23339 0.79991 0.21555
 O985 O 0.21439 0.78664 0.28609
 O986 O 0.29005 0.71197 0.20830
 C987 C 0.14236 0.75126 0.31506
 C988 C 0.25190 0.81465 0.35617
 C989 C 0.18462 0.85774 0.25261
 C990 C 0.35909 0.74422 0.17648
 C991 C 0.32128 0.64172 0.24316
 C992 C 0.25499 0.68356 0.13952
 H993 H 0.27844 0.67743 0.29553
 H994 H 0.20137 0.72476 0.17690
 H995 H 0.19776 0.80297 0.30335
 H996 H 0.32462 0.79809 0.22079
 H997 H 0.36022 0.78106 0.29696
 H998 H 0.33775 0.83769 0.27190
 H999 H 0.17645 0.66636 0.19074
 H1000 H 0.13668 0.71067 0.22799
 H1001 H 0.33559 0.69381 0.32202
 H1002 H 0.29201 0.72688 0.36174
 H1003 H 0.21250 0.77141 0.13079
 H1004 H 0.17106 0.80725 0.17375
 H1005 H 0.19660 0.67231 0.32658
 H1006 H 0.23262 0.63124 0.28438
 H1007 H 0.26855 0.86375 0.20781
 H1008 H 0.30759 0.82585 0.16443
 O1009 O 0.32468 0.74211 0.66475
 O1010 O 0.28403 0.68573 0.65195
 O1011 O 0.23944 0.83284 0.67299
 O1012 O 0.18222 0.84344 0.71221
 O1013 O 0.33090 0.82236 0.75855
 O1014 O 0.34085 0.77959 0.81368
 O1015 O 0.13417 0.72959 0.77909
 O1016 O 0.12799 0.75844 0.71407
 O1017 O 0.21442 0.63566 0.75777
 O1018 O 0.28035 0.63021 0.73582
 O1019 O 0.22877 0.71395 0.85662
 O1020 O 0.25596 0.77870 0.86331
 O1021 O 0.16824 0.74799 0.83278
 O1022 O 0.20844 0.80807 0.84407
 O1023 O 0.24779 0.66014 0.82298
 O1024 O 0.30972 0.64976 0.78159
 O1025 O 0.15949 0.66982 0.74062
 O1026 O 0.14888 0.71389 0.68279
 O1027 O 0.35740 0.76120 0.71910
 O1028 O 0.36160 0.73201 0.78159
 O1029 O 0.27631 0.85676 0.74039
 O1030 O 0.20961 0.86078 0.76248
 O1031 O 0.26031 0.77983 0.63899
 O1032 O 0.23457 0.71628 0.63238
 Zr1033 Zr 0.26508 0.73610 0.68202
 O1034 O 0.22829 0.69809 0.71430
 Zr1035 Zr 0.23322 0.81322 0.73108
 O1036 O 0.19497 0.77861 0.76550
 Zr1037 Zr 0.31230 0.76408 0.76137
 O1038 O 0.27774 0.72744 0.79715
 Zr1039 Zr 0.17829 0.72827 0.73504
 O1040 O 0.21285 0.76540 0.69865
 Zr1041 Zr 0.25745 0.67951 0.76506
 O1042 O 0.29621 0.71386 0.73020
 Zr1043 Zr 0.22619 0.75728 0.81378
 O1044 O 0.26304 0.79554 0.78187
 O1045 O 0.28410 0.78515 0.71177
 O1046 O 0.20649 0.70751 0.78491
 C1047 C 0.35629 0.75145 0.68310
 C1048 C 0.24914 0.81555 0.64116
 C1049 C 0.31264 0.85436 0.75113
 C1050 C 0.13649 0.73788 0.81552
 C1051 C 0.17770 0.63784 0.74861
 C1052 C 0.23789 0.67783 0.85456
 H1053 H 0.22107 0.67593 0.69753
 H1054 H 0.29357 0.71929 0.81991
 H1055 H 0.30117 0.80253 0.69582
 H1056 H 0.17177 0.79428 0.77341
 H1057 H 0.12550 0.78292 0.72894
 H1058 H 0.16828 0.82577 0.69423
 H1059 H 0.31901 0.66102 0.80635
 H1060 H 0.36070 0.70643 0.76846
 H1061 H 0.16227 0.69088 0.67151
 H1062 H 0.20806 0.72852 0.63329
 H1063 H 0.28052 0.76335 0.86654
 H1064 H 0.32384 0.79924 0.82655
 H1065 H 0.30434 0.67302 0.66839
 H1066 H 0.26970 0.63078 0.70904
 H1067 H 0.22119 0.85936 0.78887
 H1068 H 0.18362 0.81779 0.83235
 O1069 O 0.24912 0.18550 0.16878
 O1070 O 0.30941 0.17479 0.20359
 O1071 O 0.16507 0.17194 0.26742
 O1072 O 0.15270 0.20223 0.32293
 O1073 O 0.15044 0.26502 0.18249
 O1074 O 0.18443 0.32699 0.17300
 O1075 O 0.26062 0.28073 0.36515
 O1076 O 0.23994 0.21366 0.36640
 O1077 O 0.35042 0.28232 0.27714
 O1078 O 0.34990 0.26248 0.20597
 O1079 O 0.26013 0.36804 0.27966
 O1080 O 0.18989 0.36877 0.25752
 O1081 O 0.23266 0.33522 0.33891
 O1082 O 0.16886 0.34351 0.30668
 O1083 O 0.31464 0.34533 0.24789
 O1084 O 0.32692 0.31252 0.18804
 O1085 O 0.32401 0.25612 0.33257
 O1086 O 0.29625 0.19379 0.34202
 O1087 O 0.21487 0.23804 0.14590
 O1088 O 0.23328 0.30393 0.14367
 O1089 O 0.12853 0.23115 0.23565
 O1090 O 0.12746 0.25749 0.30157
 O1091 O 0.21909 0.14733 0.23612
 O1092 O 0.28728 0.14742 0.25151
 Zr1093 Zr 0.25678 0.19644 0.22909
 O1094 O 0.29388 0.23070 0.26415
 Zr1095 Zr 0.17662 0.23127 0.27349
 O1096 O 0.20999 0.26726 0.30982
 Zr1097 Zr 0.21101 0.27508 0.19381
 O1098 O 0.24717 0.31248 0.22629
 Zr1099 Zr 0.26593 0.24235 0.31783
 O1100 O 0.23113 0.20385 0.28478
 Zr1101 Zr 0.30196 0.28585 0.23824
 O1102 O 0.26773 0.25031 0.20104
 Zr1103 Zr 0.22104 0.32060 0.28121
 O1104 O 0.18274 0.28649 0.24707
 O1105 O 0.20138 0.22041 0.21888
 O1106 O 0.27673 0.29694 0.29267
 C1107 C 0.23213 0.20515 0.14139
 C1108 C 0.18478 0.14387 0.25240
 C1109 C 0.12362 0.24652 0.20197
 C1110 C 0.24754 0.31586 0.36723
 C1111 C 0.35274 0.27046 0.31276
 C1112 C 0.29484 0.37234 0.26508
 H1113 H 0.31935 0.21700 0.26757
 H1114 H 0.25048 0.33734 0.21191
 H1115 H 0.18514 0.20300 0.20258
 H1116 H 0.19577 0.27068 0.33482
 H1117 H 0.22610 0.19037 0.35639
 H1118 H 0.16417 0.21421 0.34641
 H1119 H 0.30640 0.32954 0.17650
 H1120 H 0.26087 0.29483 0.14022
 H1121 H 0.31404 0.18311 0.32178
 H1122 H 0.27857 0.14439 0.27897
 H1123 H 0.20445 0.37801 0.23414
 H1124 H 0.16511 0.33523 0.19312
 H1125 H 0.31942 0.19553 0.18594
 H1126 H 0.36040 0.23986 0.22069
 H1127 H 0.12133 0.28180 0.28706
 H1128 H 0.16010 0.32513 0.32732
 O1129 O 0.83599 0.67553 0.24353
 O1130 O 0.84604 0.71348 0.18263
 O1131 O 0.82290 0.76285 0.32818
 O1132 O 0.78375 0.81662 0.33677
 O1133 O 0.74182 0.66875 0.32369
 O1134 O 0.68553 0.65445 0.28294
 O1135 O 0.71292 0.85797 0.22370
 O1136 O 0.77379 0.86652 0.25149
 O1137 O 0.73524 0.77519 0.13190
 O1138 O 0.76638 0.71021 0.13060
 O1139 O 0.63726 0.75414 0.20820
 O1140 O 0.63346 0.73319 0.27938
 O1141 O 0.65873 0.82293 0.24186
 O1142 O 0.64263 0.78724 0.29723
 O1143 O 0.67461 0.73530 0.15628
 O1144 O 0.71933 0.68046 0.14851
 O1145 O 0.74899 0.83164 0.16337
 O1146 O 0.80894 0.84571 0.20238
 O1147 O 0.78167 0.64164 0.26369
 O1148 O 0.71876 0.63297 0.23607
 O1149 O 0.76059 0.72426 0.35430
 O1150 O 0.72817 0.78632 0.35495
 O1151 O 0.85895 0.74757 0.27420
 O1152 O 0.86632 0.76158 0.20994
 Zr1153 Zr 0.81582 0.73323 0.23294
 O1154 O 0.78169 0.76620 0.19364
 Zr1155 Zr 0.76403 0.76548 0.30871
 O1156 O 0.72697 0.79911 0.27248
 Zr1157 Zr 0.73727 0.68416 0.26467
 O1158 O 0.69996 0.71410 0.22598
 Zr1159 Zr 0.75766 0.81529 0.22157
 O1160 O 0.79626 0.78511 0.25964
 Zr1161 Zr 0.73243 0.73335 0.17710
 O1162 O 0.76875 0.69870 0.21343
 Zr1163 Zr 0.67936 0.76551 0.25222
 O1164 O 0.71365 0.73323 0.29296
 O1165 O 0.78633 0.71529 0.28319
 O1166 O 0.70877 0.78398 0.20180
 C1167 C 0.81828 0.64384 0.25415
 C1168 C 0.85587 0.75707 0.31020
 C1169 C 0.75086 0.68811 0.35419
 C1170 C 0.67613 0.85518 0.23278
 C1171 C 0.74201 0.81201 0.13255
 C1172 C 0.64141 0.74246 0.17282
 H1173 H 0.79826 0.77348 0.17094
 H1174 H 0.67824 0.69627 0.21899
 H1175 H 0.80371 0.70039 0.30103
 H1176 H 0.71778 0.82219 0.28707
 H1177 H 0.79479 0.85906 0.27011
 H1178 H 0.76789 0.83877 0.32681
 H1179 H 0.69816 0.66720 0.16355
 H1180 H 0.73308 0.63229 0.21082
 H1181 H 0.81899 0.83351 0.17823
 H1182 H 0.86157 0.78984 0.21332
 H1183 H 0.62916 0.70949 0.26369
 H1184 H 0.67251 0.67095 0.30282
 H1185 H 0.83094 0.69098 0.17265
 H1186 H 0.78996 0.72689 0.12694
 H1187 H 0.70383 0.77030 0.35529
 H1188 H 0.65962 0.80269 0.31464
 O1189 O 0.67221 0.33548 0.74609
 O1190 O 0.65875 0.29672 0.68873
 O1191 O 0.68301 0.24795 0.83381
 O1192 O 0.72103 0.19557 0.84563
 O1193 O 0.76579 0.34108 0.82545
 O1194 O 0.82425 0.35115 0.78300
 O1195 O 0.78770 0.14894 0.72954
 O1196 O 0.72605 0.14295 0.75991
 O1197 O 0.76088 0.23066 0.63523
 O1198 O 0.73732 0.30209 0.63779
 O1199 O 0.86627 0.24392 0.70875
 O1200 O 0.87690 0.26893 0.77231
 O1201 O 0.84267 0.18194 0.74787
 O1202 O 0.85784 0.22422 0.80456
 O1203 O 0.82978 0.26473 0.65718
 O1204 O 0.79353 0.31916 0.64504
 O1205 O 0.75236 0.17477 0.67010
 O1206 O 0.69187 0.16377 0.71015
 O1207 O 0.72756 0.36824 0.76394
 O1208 O 0.79153 0.37441 0.73659
 O1209 O 0.75127 0.28516 0.85848
 O1210 O 0.77775 0.22072 0.85864
 O1211 O 0.64778 0.27091 0.78216
 O1212 O 0.63942 0.24761 0.71942
 Zr1213 Zr 0.69041 0.27744 0.73827
 O1214 O 0.72180 0.24223 0.69885
 Zr1215 Zr 0.74211 0.24440 0.81373
 O1216 O 0.77645 0.20837 0.77733
 Zr1217 Zr 0.77080 0.32423 0.76636
 O1218 O 0.80572 0.29166 0.72715
 Zr1219 Zr 0.74417 0.19276 0.72778
 O1220 O 0.70806 0.22534 0.76628
 Zr1221 Zr 0.77216 0.27229 0.67951
 O1222 O 0.73850 0.30966 0.71605
 Zr1223 Zr 0.82474 0.24012 0.75473
 O1224 O 0.79309 0.27481 0.79532
 O1225 O 0.72125 0.29502 0.78737
 O1226 O 0.79390 0.22149 0.70571
 C1227 C 0.69079 0.36673 0.75508
 C1228 C 0.65046 0.25801 0.81716
 C1229 C 0.75942 0.32170 0.85721
 C1230 C 0.82429 0.15051 0.73916
 C1231 C 0.75557 0.19355 0.63778
 C1232 C 0.86262 0.25456 0.67296
 H1233 H 0.70402 0.23564 0.67714
 H1234 H 0.82827 0.30781 0.71828
 H1235 H 0.70486 0.31093 0.80524
 H1236 H 0.78471 0.18521 0.79255
 H1237 H 0.70487 0.15153 0.77800
 H1238 H 0.73203 0.17196 0.83320
 H1239 H 0.80608 0.33777 0.66300
 H1240 H 0.77790 0.37498 0.71114
 H1241 H 0.68149 0.17679 0.68652
 H1242 H 0.64229 0.22033 0.72861
 H1243 H 0.87629 0.29554 0.76107
 H1244 H 0.83617 0.33426 0.80331
 H1245 H 0.67380 0.31872 0.67716
 H1246 H 0.71465 0.28509 0.63152
 H1247 H 0.80299 0.23529 0.85819
 H1248 H 0.84539 0.20079 0.81629
 C1249 C 0.06962 1.00391 1.18911
 C1250 C 0.08549 1.00394 1.15313
 H1251 H 0.03788 1.00428 1.19344
 H1252 H 0.11744 1.00251 1.15034
 C1253 C 0.57910 0.50847 0.68337
 C1254 C 0.59550 0.50649 0.64767
 H1255 H 0.54738 0.51117 0.68699
 H1256 H 0.62733 0.50353 0.64490
 C1257 C 0.43346 -0.00682 0.69072
 C1258 C 0.41722 -0.00512 0.65521
 H1259 H 0.46523 -0.00859 0.69420
 H1260 H 0.38535 -0.00199 0.65324
 C1261 C -0.07516 0.49888 1.18110
 C1262 C -0.08855 0.51007 1.14615
 H1263 H -0.04545 0.48748 1.18433
 H1264 H -0.11874 0.52043 1.14346
 C1265 C -0.09833 0.48852 0.32706
 C1266 C -0.06314 0.50263 0.33785
 H1267 H -0.11908 0.47795 0.34883
 H1268 H -0.04396 0.51546 0.31587
 C1269 C 0.40513 0.99226 -0.16447
 C1270 C 0.44256 1.00303 -0.15134
 H1271 H 0.38194 0.98683 -0.14319
 H1272 H 0.46385 1.01412 -0.17234
 C1273 C 0.59816 0.50611 -0.16866
 C1274 C 0.56373 0.48997 -0.15777
 H1275 H 0.61849 0.51627 -0.14671
 H1276 H 0.54449 0.47832 -0.17992
 C1277 C 0.09632 0.00165 0.33658
 C1278 C 0.06261 -0.01441 0.34968
 H1279 H 0.11730 0.01341 0.35708
 H1280 H 0.04296 -0.02764 0.32877
 C1281 C 0.18308 1.07254 1.01339
 C1282 C 0.14707 1.08846 1.01538
 H1283 H 0.18695 1.04118 1.01247
 H1284 H 0.14381 1.11994 1.01470
 C1285 C 0.68610 0.57824 0.50080
 C1286 C 0.64973 0.59392 0.50079
 H1287 H 0.69029 0.54700 0.50332
 H1288 H 0.64637 0.62527 0.49787
 C1289 C 0.68121 0.42353 -0.00768
 C1290 C 0.64338 0.40673 -0.00833
 H1291 H 0.68458 0.45479 -0.01113
 H1292 H 0.64152 0.37540 -0.00380
 C1293 C 0.17450 -0.07575 0.49601
 C1294 C 0.13870 -0.09186 0.50014
 H1295 H 0.17759 -0.04463 0.49123
 H1296 H 0.13624 -0.12300 0.50532
 C1297 C 0.32387 -0.08983 0.49771
 C1298 C 0.33418 -0.05467 0.51114
 H1299 H 0.34648 -0.10995 0.48788
 H1300 H 0.31188 -0.03534 0.52300
 C1301 C -0.17338 0.40196 1.00330
 C1302 C -0.16111 0.44036 1.00982
 H1303 H -0.15111 0.37938 1.00049
 H1304 H -0.18301 0.46246 1.01621
 C1305 C -0.16468 0.60008 0.49245
 C1306 C -0.15240 0.56615 0.47750
 H1307 H -0.14323 0.62078 0.50311
 H1308 H -0.17381 0.54624 0.46540
 C1309 C 0.33128 1.09123 0.00804
 C1310 C 0.34235 1.05709 -0.00728
 H1311 H 0.35324 1.11121 0.01906
 H1312 H 0.32062 1.03810 -0.02026
 C1313 C -0.00293 1.17540 1.07164
 C1314 C -0.00212 1.14081 1.08991
 H1315 H -0.00063 1.17703 1.04014
 H1316 H -0.00493 1.13942 1.12138
 C1317 C 0.50240 0.68428 0.57245
 C1318 C 0.50104 0.64855 0.58895
 H1319 H 0.50595 0.68781 0.54123
 H1320 H 0.49752 0.64600 0.62031
 C1321 C -0.01276 0.68343 0.41899
 C1322 C -0.01013 0.64800 0.40299
 H1323 H -0.01505 0.68673 0.45031
 H1324 H -0.00621 0.64557 0.37169
 C1325 C 0.51250 1.16174 -0.09072
 C1326 C 0.48667 1.15003 -0.06376
 H1327 H 0.53543 1.14199 -0.10073
 H1328 H 0.46409 1.16985 -0.05315
 C1329 C 0.50896 0.30740 -0.07713
 C1330 C 0.49708 0.34153 -0.09200
 H1331 H 0.51864 0.30575 -0.04711
 H1332 H 0.48554 0.34330 -0.12126
 C1333 C -0.01193 -0.16871 0.40028
 C1334 C -0.00651 -0.15823 0.43727
 H1335 H -0.01719 -0.14665 0.37817
 H1336 H 0.00120 -0.18020 0.45869
 C1337 C 0.49924 -0.16723 0.59437
 C1338 C 0.48270 -0.15344 0.56169
 H1339 H 0.51139 -0.14699 0.61519
 H1340 H 0.46888 -0.17367 0.54187
 C1341 C -0.01522 0.32113 1.07126
 C1342 C -0.01418 0.35502 1.09024
 H1343 H -0.01910 0.32121 1.03990
 H1344 H -0.00846 0.35617 1.12111
 C1345 C 0.75350 0.32199 0.06545
 C1346 C 0.73642 0.33055 0.10212
 H1347 H 0.77575 0.29931 0.06378
 H1348 H 0.71979 0.35737 0.10491
 C1349 C 0.25472 0.82547 0.56925
 C1350 C 0.24594 0.83878 0.60507
 H1351 H 0.26896 0.79743 0.56555
 H1352 H 0.23414 0.86799 0.60823
 C1353 C 0.76173 0.68231 0.56609
 C1354 C 0.75777 0.66780 0.60225
 H1355 H 0.76899 0.71269 0.56110
 H1356 H 0.75391 0.63664 0.60637
 C1357 C 0.25881 0.17419 0.08148
 C1358 C 0.22847 0.18787 0.10275
 H1359 H 0.28903 0.17832 0.09080
 H1360 H 0.19879 0.18681 0.09106
 C1361 C 0.25894 0.17349 0.93865
 C1362 C 0.24989 0.15958 0.90317
 H1363 H 0.27314 0.20158 0.94155
 H1364 H 0.23827 0.13028 0.90076
 C1365 C 0.75830 0.68104 0.42588
 C1366 C 0.74934 0.66634 0.39094
 H1367 H 0.77112 0.70980 0.42850
 H1368 H 0.73934 0.63641 0.38891
 C1369 C 0.25394 0.82279 0.42822
 C1370 C 0.25116 0.83781 0.39210
 H1371 H 0.26143 0.79240 0.43278
 H1372 H 0.24678 0.86898 0.38856
 C1373 C 0.76328 0.32639 0.92952
 C1374 C 0.75888 0.34269 0.89197
 H1375 H 0.77904 0.29908 0.93296
 H1376 H 0.75557 0.37408 0.88952
 C1377 C 0.81192 0.43103 0.24552
 C1378 C 0.82325 0.39602 0.23177
 H1379 H 0.78463 0.43394 0.26191
 H1380 H 0.85280 0.39280 0.21988
 C1381 C 0.32303 0.92596 0.75935
 C1382 C 0.33680 0.88981 0.75294
 H1383 H 0.29243 0.93086 0.76738
 H1384 H 0.36832 0.88563 0.74861
 C1385 C 0.17481 0.92953 0.26022
 C1386 C 0.16119 0.89390 0.25113
 H1387 H 0.20379 0.93295 0.27295
 H1388 H 0.13112 0.89080 0.24094
 C1389 C 0.68221 0.43849 0.76037
 C1390 C 0.66757 0.40280 0.75391
 H1391 H 0.71177 0.44235 0.77163
 H1392 H 0.63702 0.39977 0.74505
 C1393 C 0.68328 0.57908 0.75513
 C1394 C 0.66843 0.61471 0.74820
 H1395 H 0.71377 0.57513 0.76375
 H1396 H 0.63694 0.61793 0.74319
 C1397 C 0.17911 0.07103 0.25692
 C1398 C 0.16359 0.10667 0.25141
 H1399 H 0.20969 0.06730 0.26532
 H1400 H 0.13191 0.10933 0.24735
 C1401 C 0.32938 0.06665 0.76562
 C1402 C 0.34344 0.10266 0.75801
 H1403 H 0.30034 0.06288 0.77856
 H1404 H 0.37350 0.10593 0.74740
 C1405 C 0.82628 0.57198 0.26125
 C1406 C 0.84167 0.60764 0.25411
 H1407 H 0.79654 0.56886 0.27270
 H1408 H 0.87224 0.61037 0.24490
 C1409 C 0.92488 0.25962 0.16750
 C1410 C 0.88856 0.25401 0.15342
 H1411 H 0.92926 0.27171 0.19621
 H1412 H 0.88535 0.24345 0.12388
 C1413 C 0.42927 0.75802 0.67487
 C1414 C 0.39329 0.74995 0.66057
 H1415 H 0.43253 0.77034 0.70363
 H1416 H 0.39063 0.74022 0.63072
 C1417 C 0.43295 0.25333 0.82866
 C1418 C 0.39740 0.24864 0.84581
 H1419 H 0.43527 0.26269 0.79852
 H1420 H 0.39566 0.24183 0.87668
 C1421 C 0.92823 0.76357 0.31653
 C1422 C 0.89008 0.75909 0.33220
 H1423 H 0.93231 0.77896 0.28912
 H1424 H 0.88679 0.75691 0.36363
 C1425 C 0.06946 0.75927 0.32346
 C1426 C 0.10504 0.74832 0.33744
 H1427 H 0.06742 0.77446 0.29577
 H1428 H 0.10704 0.73554 0.36632
 C1429 C 0.57758 0.25967 0.82486
 C1430 C 0.61373 0.25257 0.83951
 H1431 H 0.57393 0.27527 0.79757
 H1432 H 0.61643 0.23884 0.86794
 C1433 C 0.57358 0.75893 0.67318
 C1434 C 0.60964 0.75497 0.65703
 H1435 H 0.57014 0.76699 0.70347
 H1436 H 0.61228 0.75027 0.62589
 C1437 C 0.06625 0.26473 0.16193
 C1438 C 0.08563 0.23880 0.18373
 H1439 H 0.07623 0.29466 0.15964
 H1440 H 0.07306 0.21005 0.18845
 C1441 C -0.08834 1.01625 0.83632
 C1442 C -0.06430 0.98845 0.84955
 H1443 H -0.09685 1.03972 0.85571
 H1444 H -0.05448 0.96558 0.83008
 C1445 C 0.43081 0.49937 0.32699
 C1446 C 0.41350 0.49744 0.36206
 H1447 H 0.46278 0.50021 0.32463
 H1448 H 0.38151 0.49784 0.36433
 C1449 C 0.58644 -0.00781 0.33542
 C1450 C 0.56322 0.02044 0.34937
 H1451 H 0.59482 -0.03210 0.35404
 H1452 H 0.55380 0.04402 0.33035
 C1453 C 0.06883 0.49309 0.82087
 C1454 C 0.08604 0.48782 0.85543
 H1455 H 0.03746 0.49930 0.81907
 H1456 H 0.11748 0.48184 0.85700
 C1457 C 0.07125 0.49497 0.67569
 C1458 C 0.08765 0.50860 0.64290
 H1459 H 0.04107 0.48438 0.67509
 H1460 H 0.11718 0.52072 0.64342
 C1461 C 0.56267 0.99509 0.19028
 C1462 C 0.57769 0.98250 0.15654
 H1463 H 0.53198 1.00412 0.19189
 H1464 H 0.60823 0.97332 0.15473
 C1465 C 0.43114 0.49920 0.18168
 C1466 C 0.41393 0.48709 0.14910
 H1467 H 0.46187 0.50815 0.18087
 H1468 H 0.38387 0.47633 0.14990
 C1469 C -0.07337 0.01081 0.68863
 C1470 C -0.09054 0.01452 0.65365
 H1471 H -0.04152 0.00767 0.69010
 H1472 H -0.12221 0.01731 0.65143
 C1473 C -0.17555 0.92459 0.99982
 C1474 C -0.13969 0.90803 0.99808
 H1475 H -0.17891 0.95602 0.99976
 H1476 H -0.13713 0.87650 0.99862
 C1477 C 0.32718 0.42338 0.50376
 C1478 C 0.36362 0.40821 0.50458
 H1479 H 0.32293 0.45464 0.50142
 H1480 H 0.36731 0.37693 0.50776
 C1481 C 0.32505 0.57847 -0.00920
 C1482 C 0.33964 0.55683 0.01966
 H1483 H 0.34246 0.58177 -0.03570
 H1484 H 0.32223 0.55122 0.04571
 C1485 C -0.18875 0.07339 0.50703
 C1486 C -0.14978 0.08738 0.50528
 H1487 H -0.19429 0.04270 0.51250
 H1488 H -0.14545 0.11818 0.49909
 C1489 C 0.66750 0.10341 0.50126
 C1490 C 0.65376 0.06623 0.49107
 H1491 H 0.64617 0.12646 0.50633
 H1492 H 0.67484 0.04528 0.47980
 C1493 C 0.17362 0.58919 1.00151
 C1494 C 0.16177 0.55400 0.98957
 H1495 H 0.15166 0.61009 1.01114
 H1496 H 0.18342 0.53335 0.97885
 C1497 C 0.17837 0.40653 0.49980
 C1498 C 0.16727 0.44311 0.50780
 H1499 H 0.15635 0.38509 0.49203
 H1500 H 0.18893 0.46409 0.51738
 C1501 C 0.67486 0.90424 0.00072
 C1502 C 0.66224 0.93619 0.01903
 H1503 H 0.65373 0.88499 -0.01286
 H1504 H 0.68324 0.95478 0.03366
 C1505 C 0.00702 0.81631 0.93520
 C1506 C 0.01195 0.85122 0.91851
 H1507 H 0.00201 0.81379 0.96635
 H1508 H 0.01618 0.85355 0.88723
 C1509 C 0.50287 0.32332 0.42849
 C1510 C 0.50570 0.35949 0.41376
 H1511 H 0.49998 0.31882 0.45967
 H1512 H 0.50856 0.36323 0.38245
 C1513 C 0.01411 0.32582 0.56236
 C1514 C 0.01508 0.36054 0.57975
 H1515 H 0.01584 0.32387 0.53088
 H1516 H 0.01181 0.36203 0.61117
 C1517 C 0.50553 0.81153 0.06000
 C1518 C 0.51125 0.84497 0.07914
 H1519 H 0.50310 0.81124 0.02854
 H1520 H 0.51137 0.84454 0.11077
 C1521 C 0.49027 0.66470 0.06563
 C1522 C 0.49169 0.63049 0.08481
 H1523 H 0.48546 0.66442 0.03442
 H1524 H 0.49834 0.62965 0.11558
 C1525 C 0.00115 0.18035 0.56578
 C1526 C -0.00272 0.14647 0.58482
 H1527 H 0.00082 0.18021 0.53417
 H1528 H -0.00094 0.14551 0.61624
 C1529 C 0.49323 0.17696 0.40930
 C1530 C 0.51151 0.16448 0.44174
 H1531 H 0.47907 0.15616 0.39034
 H1532 H 0.52723 0.18507 0.45970
 C1533 C 0.00938 0.67156 0.92897
 C1534 C 0.01589 0.63876 0.90920
 H1535 H 0.00846 0.67026 0.96057
 H1536 H 0.01580 0.63860 0.87768
 C1537 C 0.23511 0.67171 0.92634
 C1538 C 0.23969 0.65544 0.89101
 H1539 H 0.22356 0.70099 0.92947
 H1540 H 0.24938 0.62538 0.88882
 C1541 C 0.74257 0.17551 0.43231
 C1542 C 0.75938 0.16540 0.39601
 H1543 H 0.72108 0.19894 0.43348
 H1544 H 0.77621 0.13870 0.39380
 C1545 C 0.25161 0.31940 0.43859
 C1546 C 0.25087 0.33677 0.40373
 H1547 H 0.24628 0.28844 0.44204
 H1548 H 0.25304 0.36830 0.40176
 C1549 C 0.75033 0.83114 0.92015
 C1550 C 0.75794 0.84831 0.88575
 H1551 H 0.74083 0.80101 0.92186
 H1552 H 0.76371 0.87937 0.88405
 C1553 C 0.74498 0.81799 0.06059
 C1554 C 0.74405 0.83410 0.09598
 H1555 H 0.73878 0.78734 0.05647
 H1556 H 0.74899 0.86524 0.09855
 C1557 C 0.24654 0.32393 0.57727
 C1558 C 0.25245 0.33756 0.61311
 H1559 H 0.23446 0.29509 0.57284
 H1560 H 0.26220 0.36743 0.61666
 C1561 C 0.74358 0.18247 0.56654
 C1562 C 0.75410 0.17060 0.60443
 H1563 H 0.72791 0.20968 0.56211
 H1564 H 0.75818 0.13957 0.60942
 C1565 C 0.24807 0.67530 0.06805
 C1566 C 0.25614 0.66063 0.10354
 H1567 H 0.23656 0.70461 0.06474
 H1568 H 0.26406 0.63010 0.10648
 C1569 C 0.16730 0.56599 0.74068
 C1570 C 0.15366 0.60194 0.74904
 H1571 H 0.19688 0.56200 0.72913
 H1572 H 0.12282 0.60543 0.75709
 C1573 C 0.66016 0.06788 0.23837
 C1574 C 0.68176 0.09011 0.26496
 H1575 H 0.65912 0.07662 0.20800
 H1576 H 0.69331 0.07455 0.29011
 C1577 C 0.83166 0.07900 0.73451
 C1578 C 0.84558 0.11619 0.74363
 H1579 H 0.80942 0.07560 0.71222
 H1580 H 0.87439 0.11867 0.75714
 C1581 C 0.33341 0.56941 0.24036
 C1582 C 0.34543 0.60597 0.24745
 H1583 H 0.30536 0.56412 0.22633
 H1584 H 0.37480 0.61017 0.25920
 C1585 C 0.33426 0.42946 0.24351
 C1586 C 0.31362 0.41035 0.27106
 H1587 H 0.33491 0.41899 0.21380
 H1588 H 0.31026 0.42314 0.29970
 C1589 C 0.82679 0.94106 0.74598
 C1590 C 0.84373 0.90581 0.74929
 H1591 H 0.79642 0.94407 0.73659
 H1592 H 0.87496 0.90370 0.75598
 C1593 C 0.66609 0.92767 0.23069
 C1594 C 0.65227 0.89122 0.23654
 H1595 H 0.69436 0.93251 0.21651
 H1596 H 0.62298 0.88768 0.24912
 C1597 C 0.16817 0.42486 0.73683
 C1598 C 0.15619 0.38848 0.74627
 H1599 H 0.19685 0.42979 0.72352
 H1600 H 0.12629 0.38439 0.75708
 C1601 C 0.06386 0.73386 0.82888
 C1602 C 0.10128 0.73773 0.84062
 H1603 H 0.05686 0.72499 0.79951
 H1604 H 0.10660 0.74479 0.87094
 C1605 C 0.56474 0.23943 0.32439
 C1606 C 0.60123 0.23865 0.33935
 H1607 H 0.55956 0.23111 0.29448
 H1608 H 0.60497 0.24608 0.36979
 C1609 C 0.56998 0.72986 0.15969
 C1610 C 0.60686 0.73836 0.14777
 H1611 H 0.56380 0.72119 0.18951
 H1612 H 0.61236 0.74331 0.11694
 C1613 C 0.07356 0.24311 0.66681
 C1614 C 0.11144 0.25140 0.65814
 H1615 H 0.06560 0.23059 0.69482
 H1616 H 0.11879 0.26012 0.62852
 C1617 C 0.93463 0.24620 0.65893
 C1618 C 0.89822 0.25732 0.64796
 H1619 H 0.93887 0.23061 0.68613
 H1620 H 0.89427 0.27053 0.61946
 C1621 C 0.43082 0.73399 0.16126
 C1622 C 0.39440 0.74572 0.15120
 H1623 H 0.43573 0.71881 0.18858
 H1624 H 0.38995 0.75824 0.12245
 C1625 C 0.42412 0.25842 0.32462
 C1626 C 0.38963 0.27540 0.33425
 H1627 H 0.42606 0.24028 0.29897
 H1628 H 0.38641 0.28951 0.36219
 C1629 C 0.92412 0.74078 0.84329
 C1630 C 0.90428 0.77131 0.82850
 H1631 H 0.91400 0.71132 0.83815
 H1632 H 0.91661 0.80038 0.83019
   
