data_POSCAR
  _audit_creation_date              2014-09-24
  _audit_creation_method            'ToBaCCo'
  _symmetry_space_group_name_H-M    'P1'
  _symmetry_Int_Tables_number       1
  _symmetry_cell_setting            triclinic
  loop_
  _symmetry_equiv_pos_as_xyz
 x,y,z
_cell_length_a 48.7384
_cell_length_b 48.4577
_cell_length_c 48.3561
_cell_angle_alpha 89.971700
_cell_angle_beta 89.623400
_cell_angle_gamma 90.117000
loop_
  _atom_site_label
  _atom_site_type_symbol
  _atom_site_fract_x
  _atom_site_fract_y
  _atom_site_fract_z
C1 C 0.20288 0.19056 0.23237
 C2 C 0.18067 0.19520 0.25035
 C3 C 0.16292 0.21751 0.24600
 C4 C 0.16742 0.23529 0.22352
 C5 C 0.18946 0.23087 0.20528
 C6 C 0.20731 0.20843 0.20972
 C7 C 0.22072 0.16835 0.23670
 C8 C 0.24290 0.16374 0.21866
 C9 C 0.24723 0.18149 0.19610
 C10 C 0.22961 0.20386 0.19152
 C11 C 0.23388 0.22176 0.16909
 C12 C 0.21610 0.24403 0.16457
 C13 C 0.19396 0.24851 0.18271
 H14 H 0.17735 0.18147 0.26772
 H15 H 0.15366 0.25253 0.22027
 H16 H 0.21723 0.15468 0.25409
 H17 H 0.26438 0.17784 0.18219
 H18 H 0.25099 0.21841 0.15506
 H19 H 0.18024 0.26572 0.17940
 C20 C 0.70612 0.69049 0.72901
 C21 C 0.68355 0.69472 0.74660
 C22 C 0.66556 0.71682 0.74206
 C23 C 0.67025 0.73481 0.71979
 C24 C 0.69270 0.73082 0.70195
 C25 C 0.71074 0.70857 0.70656
 C26 C 0.72415 0.66847 0.73348
 C27 C 0.74661 0.66417 0.71575
 C28 C 0.75119 0.68216 0.69342
 C29 C 0.73341 0.70439 0.68872
 C30 C 0.73788 0.72249 0.66649
 C31 C 0.71996 0.74464 0.66187
 C32 C 0.69742 0.74867 0.67960
 H33 H 0.68009 0.68082 0.76381
 H34 H 0.65633 0.75189 0.71638
 H35 H 0.72072 0.65454 0.75072
 H36 H 0.76856 0.67896 0.67973
 H37 H 0.75525 0.71926 0.65282
 H38 H 0.68361 0.76578 0.67593
 C39 C 0.29356 0.80804 0.73042
 C40 C 0.31575 0.80426 0.74836
 C41 C 0.33417 0.78239 0.74423
 C42 C 0.33030 0.76416 0.72206
 C43 C 0.30830 0.76771 0.70388
 C44 C 0.28982 0.78974 0.70806
 C45 C 0.27509 0.82985 0.73442
 C46 C 0.25301 0.83376 0.71629
 C47 C 0.24937 0.81543 0.69407
 C48 C 0.26762 0.79346 0.68986
 C49 C 0.26407 0.77517 0.66770
 C50 C 0.28247 0.75334 0.66341
 C51 C 0.30452 0.74966 0.68155
 H52 H 0.31861 0.81833 0.76549
 H53 H 0.34456 0.74727 0.71897
 H54 H 0.27792 0.84393 0.75161
 H55 H 0.23241 0.81810 0.67999
 H56 H 0.24704 0.77791 0.65364
 H57 H 0.31873 0.73280 0.67839
 C58 C 0.79660 0.31265 0.23352
 C59 C 0.81860 0.30879 0.25167
 C60 C 0.83657 0.28639 0.24822
 C61 C 0.83232 0.26774 0.22641
 C62 C 0.81047 0.27139 0.20804
 C63 C 0.79251 0.29393 0.21159
 C64 C 0.77863 0.33496 0.23697
 C65 C 0.75668 0.33884 0.21875
 C66 C 0.75271 0.32023 0.19690
 C67 C 0.77044 0.29774 0.19322
 C68 C 0.76651 0.27899 0.17151
 C69 C 0.78440 0.25661 0.16786
 C70 C 0.80632 0.25288 0.18617
 H71 H 0.82154 0.32326 0.26843
 H72 H 0.84612 0.25040 0.22373
 H73 H 0.78186 0.34929 0.25380
 H74 H 0.73575 0.32332 0.18284
 H75 H 0.74958 0.28177 0.15735
 H76 H 0.82012 0.23561 0.18351
 C77 C 0.79601 0.69378 0.26685
 C78 C 0.81889 0.69830 0.24970
 C79 C 0.83667 0.72063 0.25448
 C80 C 0.83146 0.73850 0.27679
 C81 C 0.80870 0.73418 0.29421
 C82 C 0.79088 0.71176 0.28923
 C83 C 0.77820 0.67156 0.26200
 C84 C 0.75539 0.66705 0.27929
 C85 C 0.75041 0.68489 0.30160
 C86 C 0.76795 0.70728 0.30666
 C87 C 0.76297 0.72524 0.32887
 C88 C 0.78066 0.74755 0.33388
 C89 C 0.80347 0.75189 0.31655
 H90 H 0.82289 0.68444 0.23253
 H91 H 0.84504 0.75573 0.28078
 H92 H 0.78221 0.65778 0.24483
 H93 H 0.73280 0.68129 0.31495
 H94 H 0.74540 0.72174 0.34223
 H95 H 0.81711 0.76913 0.32054
 C96 C 0.29602 0.18897 -0.23293
 C97 C 0.31854 0.19313 -0.25068
 C98 C 0.33661 0.21538 -0.24648
 C99 C 0.33191 0.23358 -0.22432
 C100 C 0.30954 0.22964 -0.20635
 C101 C 0.29150 0.20726 -0.21067
 C102 C 0.27793 0.16679 -0.23704
 C103 C 0.25555 0.16260 -0.21911
 C104 C 0.25114 0.18084 -0.19701
 C105 C 0.26894 0.20316 -0.19268
 C106 C 0.26454 0.22140 -0.17062
 C107 C 0.28245 0.24366 -0.16624
 C108 C 0.30491 0.24767 -0.18411
 H109 H 0.32182 0.17901 -0.26771
 H110 H 0.34577 0.25080 -0.22106
 H111 H 0.28124 0.15267 -0.25412
 H112 H 0.23386 0.17779 -0.18316
 H113 H 0.24725 0.21812 -0.15685
 H114 H 0.31873 0.26487 -0.18063
 C115 C 0.70257 0.30609 -0.22752
 C116 C 0.68050 0.30167 -0.24548
 C117 C 0.66265 0.27915 -0.24155
 C118 C 0.66699 0.26102 -0.21929
 C119 C 0.68890 0.26521 -0.20111
 C120 C 0.70679 0.28781 -0.20523
 C121 C 0.72048 0.32848 -0.23144
 C122 C 0.74243 0.33287 -0.21331
 C123 C 0.74657 0.31463 -0.19119
 C124 C 0.72892 0.29212 -0.18705
 C125 C 0.73301 0.27384 -0.16499
 C126 C 0.71523 0.25144 -0.16075
 C127 C 0.69322 0.24718 -0.17884
 H128 H 0.67718 0.31574 -0.26259
 H129 H 0.65336 0.24366 -0.21592
 H130 H 0.71738 0.34259 -0.24854
 H131 H 0.76352 0.31783 -0.17720
 H132 H 0.75001 0.27703 -0.15097
 H133 H 0.67949 0.22986 -0.17570
 C134 C 0.20480 0.80751 0.26529
 C135 C 0.18244 0.80238 0.24789
 C136 C 0.16508 0.77971 0.25266
 C137 C 0.17008 0.76206 0.27509
 C138 C 0.19228 0.76695 0.29274
 C139 C 0.20974 0.78974 0.28784
 C140 C 0.22224 0.83013 0.26055
 C141 C 0.24454 0.83525 0.27815
 C142 C 0.24926 0.81753 0.30062
 C143 C 0.23209 0.79479 0.30555
 C144 C 0.23687 0.77703 0.32793
 C145 C 0.21954 0.75437 0.33283
 C146 C 0.19729 0.74946 0.31524
 H147 H 0.17846 0.81598 0.23056
 H148 H 0.15671 0.74460 0.27893
 H149 H 0.21827 0.84369 0.24324
 H150 H 0.26640 0.82148 0.31428
 H151 H 0.25401 0.78096 0.34150
 H152 H 0.18391 0.73196 0.31915
 C153 C 0.44306 0.45413 0.48094
 C154 C 0.44828 0.43180 0.49856
 C155 C 0.47080 0.41442 0.49375
 C156 C 0.48820 0.41936 0.47102
 C157 C 0.48321 0.44157 0.45312
 C158 C 0.46058 0.45905 0.45809
 C159 C 0.42061 0.47161 0.48575
 C160 C 0.41546 0.49387 0.46795
 C161 C 0.43287 0.49865 0.44523
 C162 C 0.45544 0.48144 0.44019
 C163 C 0.47292 0.48624 0.41755
 C164 C 0.49543 0.46890 0.41253
 C165 C 0.50044 0.44659 0.43030
 H166 H 0.43486 0.42787 0.51611
 H167 H 0.50555 0.40595 0.46717
 H168 H 0.40718 0.46779 0.50326
 H169 H 0.42877 0.51584 0.43151
 H170 H 0.46889 0.50342 0.40386
 H171 H 0.51783 0.43321 0.42631
 C172 C -0.05959 -0.04522 0.98250
 C173 C -0.05576 -0.06777 1.00027
 C174 C -0.03393 -0.08614 0.99587
 C175 C -0.01582 -0.08187 0.97362
 C176 C -0.01942 -0.05949 0.95563
 C177 C -0.04139 -0.04106 0.96006
 C178 C -0.08134 -0.02679 0.98678
 C179 C -0.08532 -0.00435 0.96883
 C180 C -0.06710 -0.00028 0.94651
 C181 C -0.04515 -0.01847 0.94204
 C182 C -0.02690 -0.01451 0.91981
 C183 C -0.00509 -0.03287 0.91531
 C184 C -0.00143 -0.05529 0.93329
 H185 H -0.06974 -0.07094 1.01748
 H186 H 0.00104 -0.09609 0.97033
 H187 H -0.09532 -0.02993 1.00405
 H188 H -0.06983 0.01698 0.93259
 H189 H -0.02963 0.00280 0.90589
 H190 H 0.01539 -0.06948 0.92999
 C191 C 1.06036 0.54090 0.98271
 C192 C 1.05639 0.56338 1.00056
 C193 C 1.03407 0.58133 0.99692
 C194 C 1.01559 0.57653 0.97524
 C195 C 1.01932 0.55418 0.95720
 C196 C 1.04180 0.53628 0.96093
 C197 C 1.08264 0.52299 0.98626
 C198 C 1.08677 0.50063 0.96820
 C199 C 1.06817 0.49612 0.94656
 C200 C 1.04572 0.51376 0.94284
 C201 C 1.02715 0.50927 0.92126
 C202 C 1.00479 0.52705 0.91748
 C203 C 1.00100 0.54947 0.93544
 H204 H 1.07074 0.56675 1.01722
 H205 H 0.99831 0.59030 0.97240
 H206 H 1.09691 0.52647 1.00303
 H207 H 1.07098 0.47890 0.93259
 H208 H 1.03025 0.49202 0.90739
 H209 H 0.98375 0.56321 0.93240
 C210 C 0.55802 0.04599 0.48082
 C211 C 0.55353 0.06844 0.49858
 C212 C 0.53110 0.08609 0.49459
 C213 C 0.51305 0.08128 0.47261
 C214 C 0.51727 0.05897 0.45462
 C215 C 0.53983 0.04124 0.45873
 C216 C 0.58038 0.02825 0.48472
 C217 C 0.58493 0.00591 0.46674
 C218 C 0.56670 0.00128 0.44480
 C219 C 0.54421 0.01876 0.44071
 C220 C 0.52603 0.01412 0.41883
 C221 C 0.50361 0.03172 0.41467
 C222 C 0.49935 0.05411 0.43256
 H223 H 0.56745 0.07226 0.51556
 H224 H 0.49576 0.09486 0.46938
 H225 H 0.59436 0.03184 0.50172
 H226 H 0.56981 -0.01591 0.43087
 H227 H 0.52948 -0.00312 0.40503
 H228 H 0.48203 0.06770 0.42924
 C229 C -0.05930 0.04724 0.51984
 C230 C -0.05533 0.06984 0.50213
 C231 C -0.03312 0.08788 0.50602
 C232 C -0.01475 0.08321 0.52774
 C233 C -0.01849 0.06075 0.54568
 C234 C -0.04085 0.04265 0.54174
 C235 C -0.08143 0.02915 0.51604
 C236 C -0.08546 0.00666 0.53389
 C237 C -0.06709 0.00213 0.55566
 C238 C -0.04477 0.01998 0.55968
 C239 C -0.02632 0.01557 0.58135
 C240 C -0.00412 0.03356 0.58540
 C241 C -0.00027 0.05609 0.56752
 H242 H -0.06951 0.07328 0.48536
 H243 H 0.00240 0.09718 0.53064
 H244 H -0.09565 0.03253 0.49922
 H245 H -0.07007 -0.01525 0.56943
 H246 H -0.02920 -0.00182 0.59520
 H247 H 0.01686 0.07000 0.57051
 C248 C 0.44085 0.54692 0.01534
 C249 C 0.44523 0.56934 -0.00247
 C250 C 0.46738 0.58747 0.00167
 C251 C 0.48528 0.58291 0.02389
 C252 C 0.48110 0.56059 0.04196
 C253 C 0.45881 0.54250 0.03767
 C254 C 0.41876 0.52884 0.01117
 C255 C 0.41436 0.50646 0.02907
 C256 C 0.43219 0.50215 0.05130
 C257 C 0.45444 0.51998 0.05570
 C258 C 0.47237 0.51567 0.07783
 C259 C 0.49456 0.53362 0.08219
 C260 C 0.49880 0.55604 0.06427
 H261 H 0.43135 0.57246 -0.01955
 H262 H 0.50244 0.59680 0.02711
 H263 H 0.40502 0.53231 -0.00597
 H264 H 0.42869 0.48484 0.06511
 H265 H 0.46892 0.49841 0.09163
 H266 H 0.51594 0.56989 0.06775
 C267 C 0.55891 -0.04691 0.01878
 C268 C 0.55402 -0.06882 0.00051
 C269 C 0.53137 -0.08633 0.00446
 C270 C 0.51353 -0.08194 0.02691
 C271 C 0.51818 -0.06018 0.04540
 C272 C 0.54093 -0.04254 0.04135
 C273 C 0.58148 -0.02930 0.01487
 C274 C 0.58629 -0.00743 0.03326
 C275 C 0.56838 -0.00318 0.05569
 C276 C 0.54568 -0.02056 0.05986
 C277 C 0.52766 -0.01637 0.08220
 C278 C 0.50509 -0.03396 0.08634
 C279 C 0.50044 -0.05580 0.06790
 H280 H 0.56778 -0.07232 -0.01684
 H281 H 0.49607 -0.09544 0.03011
 H282 H 0.59525 -0.03271 -0.00243
 H283 H 0.57218 0.01372 0.06986
 H284 H 0.53115 0.00051 0.09646
 H285 H 0.48300 -0.06935 0.07090
 C286 C 1.05750 0.45604 0.52184
 C287 C 1.05239 0.43397 0.50384
 C288 C 1.02983 0.41637 0.50824
 C289 C 1.01234 0.42094 0.53101
 C290 C 1.01725 0.44288 0.54923
 C291 C 1.03988 0.46054 0.54466
 C292 C 1.07995 0.47369 0.51744
 C293 C 1.08505 0.49568 0.53557
 C294 C 1.06748 0.50010 0.55826
 C295 C 1.04490 0.48268 0.56292
 C296 C 1.02725 0.48703 0.58553
 C297 C 1.00474 0.46948 0.59012
 C298 C 0.99988 0.44745 0.57199
 H299 H 1.06597 0.43045 0.48633
 H300 H 0.99496 0.40749 0.53475
 H301 H 1.09355 0.47038 0.49992
 H302 H 1.07127 0.51707 0.57227
 H303 H 1.03112 0.50401 0.59951
 H304 H 0.98248 0.43392 0.57565
 C305 C 0.41756 0.01294 0.21541
 H306 H 0.41901 0.03096 0.22853
 C307 C 0.43617 0.00937 0.19363
 H308 H 0.45186 0.02479 0.19000
 C309 C 0.39541 -0.02923 0.20444
 H310 H 0.37974 -0.04439 0.20890
 C311 C 0.41352 -0.03353 0.18238
 H312 H 0.41156 -0.05190 0.16980
 N313 N 0.39755 -0.00611 0.22024
 C314 C 0.33028 0.03624 0.26187
 H315 H 0.32787 0.02345 0.28007
 C316 C 0.31256 0.05837 0.25748
 H317 H 0.29646 0.06272 0.27239
 C318 C 0.35394 0.04600 0.21999
 H319 H 0.36985 0.04091 0.20522
 C320 C 0.33671 0.06839 0.21485
 H321 H 0.33968 0.08042 0.19622
 Zn322 Zn 0.37357 0.00006 0.25052
 N323 N 0.35066 0.03066 0.24336
 C324 C 0.39245 0.03015 0.29725
 N325 N 0.39561 0.00684 0.28188
 C326 C 0.41556 -0.01182 0.28772
 C327 C 0.43307 -0.00758 0.31004
 C328 C 0.40947 0.03513 0.31984
 C329 C 0.33133 -0.03686 0.23723
 C330 C 0.31361 -0.05927 0.24085
 C331 C 0.33574 -0.06916 0.28427
 C332 C 0.35297 -0.04648 0.27991
 N333 N 0.35069 -0.03105 0.25652
 H334 H 0.37691 0.04505 0.29194
 H335 H 0.41791 -0.02996 0.27489
 H336 H 0.44891 -0.02255 0.31450
 H337 H 0.40670 0.05377 0.33183
 H338 H 0.32968 -0.02400 0.21902
 H339 H 0.29830 -0.06376 0.22534
 H340 H 0.33791 -0.08121 0.30295
 H341 H 0.36804 -0.04122 0.29530
 C342 C 0.31582 0.07475 0.23381
 C343 C 0.43413 -0.01408 0.17684
 C344 C 0.31585 -0.07574 0.26453
 C345 C 0.43003 0.01609 0.32636
 C346 C 0.08237 -0.01501 0.71334
 H347 H 0.08033 -0.03289 0.72660
 C348 C 0.06429 -0.01127 0.69138
 H349 H 0.04843 -0.02645 0.68775
 C350 C 0.10532 0.02681 0.70236
 H351 H 0.12102 0.04184 0.70694
 C352 C 0.08774 0.03129 0.68013
 H353 H 0.09016 0.04965 0.66755
 N354 N 0.10248 0.00382 0.71830
 C355 C 0.16754 -0.03846 0.76283
 H356 H 0.16938 -0.02514 0.78068
 C357 C 0.18551 -0.06062 0.75940
 H358 H 0.20107 -0.06435 0.77479
 C359 C 0.14525 -0.04937 0.72079
 H360 H 0.12984 -0.04468 0.70556
 C361 C 0.16272 -0.07180 0.71663
 H362 H 0.16052 -0.08445 0.69831
 Zn363 Zn 0.12526 -0.00206 0.74928
 N364 N 0.14782 -0.03335 0.74374
 C365 C 0.10407 -0.03010 0.79652
 N366 N 0.10202 -0.00719 0.78039
 C367 C 0.08245 0.01221 0.78534
 C368 C 0.06416 0.00916 0.80750
 C369 C 0.08627 -0.03389 0.81894
 C370 C 0.16875 0.03321 0.73545
 C371 C 0.18712 0.05513 0.73862
 C372 C 0.16423 0.06695 0.78144
 C373 C 0.14636 0.04477 0.77754
 N374 N 0.14875 0.02859 0.75467
 H375 H 0.11935 -0.04556 0.79196
 H376 H 0.08102 0.03003 0.77194
 H377 H 0.04877 0.02481 0.81115
 H378 H 0.08809 -0.05217 0.83170
 H379 H 0.17042 0.01978 0.71766
 H380 H 0.20284 0.05855 0.72310
 H381 H 0.16211 0.07979 0.79966
 H382 H 0.13072 0.04046 0.79287
 C383 C 0.18315 -0.07752 0.73603
 C384 C 0.06694 0.01215 0.67455
 C385 C 0.18486 0.07225 0.76185
 C386 C 0.06605 -0.01413 0.82455
 C387 C 0.58241 0.49074 0.20957
 H388 H 0.58038 0.47238 0.22217
 C389 C 0.56477 0.49494 0.18734
 H390 H 0.54913 0.47974 0.18273
 C391 C 0.60495 0.53320 0.20042
 H392 H 0.62037 0.54826 0.20579
 C393 C 0.58781 0.53815 0.17793
 H394 H 0.59034 0.55695 0.16611
 N395 N 0.60217 0.50964 0.21553
 C396 C 0.66816 0.46700 0.25817
 H397 H 0.67005 0.47996 0.27627
 C398 C 0.68606 0.44489 0.25428
 H399 H 0.70178 0.44075 0.26945
 C400 C 0.64557 0.45671 0.21613
 H401 H 0.62998 0.46156 0.20115
 C402 C 0.66300 0.43429 0.21150
 H403 H 0.66053 0.42200 0.19302
 Zn404 Zn 0.62492 0.50276 0.24636
 N405 N 0.64821 0.47230 0.23937
 C406 C 0.60498 0.47179 0.29223
 N407 N 0.60187 0.49531 0.27719
 C408 C 0.58171 0.51374 0.28331
 C409 C 0.56408 0.50913 0.30573
 C410 C 0.58787 0.46645 0.31489
 C411 C 0.66773 0.53966 0.23483
 C412 C 0.68543 0.56189 0.23924
 C413 C 0.66162 0.57132 0.28217
 C414 C 0.64443 0.54882 0.27702
 N415 N 0.64757 0.53371 0.25350
 H416 H 0.62069 0.45708 0.28673
 H417 H 0.57942 0.53207 0.27076
 H418 H 0.54818 0.52400 0.31052
 H419 H 0.59074 0.44772 0.32668
 H420 H 0.67004 0.52705 0.21651
 H421 H 0.70139 0.56648 0.22424
 H422 H 0.65880 0.58313 0.30094
 H423 H 0.62871 0.54344 0.29191
 C424 C 0.68342 0.42819 0.23081
 C425 C 0.56750 0.51882 0.17121
 C426 C 0.68234 0.57802 0.26308
 C427 C 0.56723 0.48534 0.32186
 C428 C 0.91626 0.51021 0.71901
 H429 H 0.91832 0.52813 0.73218
 C430 C 0.93436 0.50636 0.69686
 H431 H 0.95039 0.52140 0.69289
 C432 C 0.89309 0.46855 0.70827
 H433 H 0.87722 0.45367 0.71297
 C434 C 0.91068 0.46397 0.68584
 H435 H 0.90802 0.44563 0.67340
 N436 N 0.89594 0.49157 0.72410
 C437 C 0.82983 0.53501 0.76646
 H438 H 0.82732 0.52214 0.78460
 C439 C 0.81221 0.55726 0.76216
 H440 H 0.79623 0.56150 0.77717
 C441 C 0.85353 0.54474 0.72459
 H442 H 0.86936 0.53957 0.70977
 C443 C 0.83644 0.56724 0.71956
 H444 H 0.83936 0.57945 0.70101
 Zn445 Zn 0.87240 0.49814 0.75465
 N446 N 0.85010 0.52929 0.74788
 C447 C 0.89224 0.52747 0.80141
 N448 N 0.89478 0.50415 0.78594
 C449 C 0.91434 0.48502 0.79160
 C450 C 0.93214 0.48882 0.81378
 C451 C 0.90956 0.53202 0.82386
 C452 C 0.82914 0.46271 0.74116
 C453 C 0.81080 0.44076 0.74445
 C454 C 0.83289 0.42947 0.78757
 C455 C 0.85075 0.45170 0.78353
 N456 N 0.84876 0.46761 0.76045
 H457 H 0.87699 0.54273 0.79626
 H458 H 0.91620 0.46687 0.77870
 H459 H 0.94771 0.47351 0.81805
 H460 H 0.90730 0.55070 0.83589
 H461 H 0.82779 0.47592 0.72318
 H462 H 0.79542 0.43709 0.72885
 H463 H 0.83472 0.41682 0.80593
 H464 H 0.86610 0.45621 0.79889
 C465 C 0.81550 0.57361 0.73845
 C466 C 0.93150 0.48311 0.67994
 C467 C 0.81268 0.42386 0.76788
 C468 C 0.92978 0.51254 0.83016
 C469 C 0.21547 0.41683 0.01293
 H470 H 0.22844 0.41854 0.03092
 C471 C 0.19335 0.43480 0.00967
 H472 H 0.18934 0.45024 0.02532
 C473 C 0.20520 0.39472 -0.02949
 H474 H 0.21007 0.37934 -0.04489
 C475 C 0.18282 0.41218 -0.03348
 H476 H 0.17040 0.40999 -0.05185
 N477 N 0.22083 0.39715 -0.00640
 C478 C 0.26408 0.33022 0.03479
 H479 H 0.28210 0.32859 0.02172
 C480 C 0.26028 0.31184 0.05675
 H481 H 0.27554 0.29614 0.06057
 C482 C 0.22211 0.35259 0.04547
 H483 H 0.20710 0.36824 0.04083
 C484 C 0.21757 0.33471 0.06768
 H485 H 0.19919 0.33685 0.08020
 Zn486 Zn 0.25158 0.37407 -0.00067
 N487 N 0.24523 0.35024 0.02974
 C488 C 0.29752 0.39407 0.02930
 N489 N 0.28209 0.39719 0.00616
 C490 C 0.28748 0.41760 -0.01242
 C491 C 0.30949 0.43557 -0.00835
 C492 C 0.31980 0.41155 0.03411
 C493 C 0.23956 0.33176 -0.03809
 C494 C 0.24374 0.31421 -0.06060
 C495 C 0.28646 0.33779 -0.07027
 C496 C 0.28153 0.35486 -0.04751
 N497 N 0.25824 0.35175 -0.03212
 H498 H 0.29258 0.37813 0.04412
 H499 H 0.27461 0.41987 -0.03042
 H500 H 0.31367 0.45171 -0.02331
 H501 H 0.33192 0.40874 0.05255
 H502 H 0.22144 0.32944 -0.02525
 H503 H 0.22875 0.29836 -0.06518
 H504 H 0.30506 0.34055 -0.08227
 H505 H 0.29644 0.37042 -0.04210
 C506 C 0.23681 0.31411 0.07348
 C507 C 0.17676 0.43246 -0.01376
 C508 C 0.26738 0.31723 -0.07695
 C509 C 0.32595 0.43251 0.01507
 C510 C 0.71541 0.07986 -0.00686
 H511 H 0.72845 0.07773 -0.02492
 C512 C 0.69317 0.06204 -0.00301
 H513 H 0.68901 0.04616 -0.01818
 C514 C 0.70502 0.10294 0.03512
 H515 H 0.70987 0.11869 0.05011
 C516 C 0.68252 0.08561 0.03973
 H517 H 0.67017 0.08832 0.05819
 N518 N 0.72071 0.10002 0.01193
 C519 C 0.76355 0.16624 -0.03146
 H520 H 0.78144 0.16845 -0.01853
 C521 C 0.75962 0.18419 -0.05368
 H522 H 0.77469 0.20010 -0.05782
 C523 C 0.72193 0.14298 -0.04142
 H524 H 0.70706 0.12720 -0.03635
 C525 C 0.71728 0.16041 -0.06389
 H526 H 0.69896 0.15780 -0.07619
 Zn527 Zn 0.75129 0.12330 0.00527
 N528 N 0.74492 0.14602 -0.02588
 C529 C 0.79764 0.10310 -0.02438
 N530 N 0.78223 0.10047 -0.00095
 C531 C 0.78784 0.08066 0.01813
 C532 C 0.80989 0.06269 0.01417
 C533 C 0.81995 0.08566 -0.02907
 C534 C 0.73816 0.16692 0.04067
 C535 C 0.74162 0.18559 0.06236
 C536 C 0.78422 0.16295 0.07363
 C537 C 0.78003 0.14478 0.05164
 N538 N 0.75714 0.14693 0.03583
 H539 H 0.79259 0.11856 -0.03958
 H540 H 0.77503 0.07878 0.03640
 H541 H 0.81404 0.04708 0.02957
 H542 H 0.83211 0.08794 -0.04776
 H543 H 0.72033 0.16839 0.02753
 H544 H 0.72628 0.20131 0.06591
 H545 H 0.80247 0.16105 0.08616
 H546 H 0.79514 0.12911 0.04718
 C547 C 0.73624 0.18129 -0.07014
 C548 C 0.67639 0.06497 0.02042
 C549 C 0.76490 0.18364 0.07909
 C550 C 0.82618 0.06515 -0.00970
 C551 C 0.21464 0.57989 0.48588
 H552 H 0.22746 0.57793 0.46764
 C553 C 0.19263 0.56182 0.49001
 H554 H 0.18852 0.54603 0.47478
 C555 C 0.20465 0.60278 0.52807
 H556 H 0.20957 0.61851 0.54304
 C557 C 0.18241 0.58521 0.53295
 H558 H 0.17016 0.58767 0.55155
 N559 N 0.22005 0.60005 0.50466
 C560 C 0.26235 0.66653 0.46098
 H561 H 0.28032 0.66884 0.47380
 C562 C 0.25826 0.68431 0.43867
 H563 H 0.27316 0.70034 0.43421
 C564 C 0.22071 0.64314 0.45140
 H565 H 0.20590 0.62737 0.45665
 C566 C 0.21589 0.66042 0.42883
 H567 H 0.19745 0.65759 0.41683
 Zn568 Zn 0.25045 0.62351 0.49783
 N569 N 0.24380 0.64628 0.46676
 C570 C 0.29676 0.60357 0.46798
 N571 N 0.28142 0.60082 0.49144
 C572 C 0.28720 0.58107 0.51052
 C573 C 0.30950 0.56341 0.50660
 C574 C 0.31931 0.58642 0.46332
 C575 C 0.23735 0.66679 0.53373
 C576 C 0.24074 0.68502 0.55581
 C577 C 0.28353 0.66247 0.56649
 C578 C 0.27941 0.64473 0.54415
 N579 N 0.25643 0.64699 0.52848
 H580 H 0.29152 0.61896 0.45277
 H581 H 0.27441 0.57904 0.52878
 H582 H 0.31397 0.54778 0.52194
 H583 H 0.33128 0.58895 0.44458
 H584 H 0.21945 0.66837 0.52071
 H585 H 0.22528 0.70054 0.55974
 H586 H 0.30181 0.66042 0.57895
 H587 H 0.29460 0.62924 0.53936
 C588 C 0.23486 0.68123 0.42230
 C589 C 0.17622 0.56452 0.51376
 C590 C 0.26405 0.68285 0.57247
 C591 C 0.32585 0.56612 0.48283
 C592 C 0.71325 0.92181 0.51232
 H593 H 0.72623 0.92348 0.53031
 C594 C 0.69125 0.93992 0.50901
 H595 H 0.68731 0.95542 0.52461
 C596 C 0.70290 0.89968 0.46993
 H597 H 0.70768 0.88423 0.45457
 C598 C 0.68064 0.91727 0.46588
 H599 H 0.66823 0.91514 0.44750
 N600 N 0.71851 0.90205 0.49303
 C601 C 0.76152 0.83519 0.53454
 H602 H 0.77954 0.83344 0.52148
 C603 C 0.75763 0.81693 0.55657
 H604 H 0.77275 0.80110 0.56056
 C605 C 0.71957 0.85767 0.54506
 H606 H 0.70458 0.87331 0.54029
 C607 C 0.71494 0.83989 0.56735
 H608 H 0.69646 0.84219 0.57962
 Zn609 Zn 0.74912 0.87881 0.49879
 N610 N 0.74272 0.85523 0.52938
 C611 C 0.79541 0.89873 0.52836
 N612 N 0.77980 0.90182 0.50534
 C613 C 0.78512 0.92217 0.48666
 C614 C 0.80719 0.94015 0.49051
 C615 C 0.81775 0.91618 0.53294
 C616 C 0.73676 0.83627 0.46161
 C617 C 0.74090 0.81850 0.43925
 C618 C 0.78375 0.84179 0.42950
 C619 C 0.77887 0.85906 0.45210
 N620 N 0.75554 0.85620 0.46747
 H621 H 0.79057 0.88282 0.54325
 H622 H 0.77215 0.92439 0.46873
 H623 H 0.81116 0.95611 0.47537
 H624 H 0.83016 0.91348 0.55124
 H625 H 0.71861 0.83415 0.47444
 H626 H 0.72584 0.80269 0.43476
 H627 H 0.80240 0.84437 0.41753
 H628 H 0.79385 0.87458 0.45741
 C629 C 0.73418 0.81931 0.57327
 C630 C 0.67468 0.93763 0.48556
 C631 C 0.76459 0.82125 0.42292
 C632 C 0.82377 0.93714 0.51388
 C633 C 0.01239 0.21840 0.42014
 H634 H 0.03029 0.23154 0.42166
 C635 C 0.00899 0.19628 0.43836
 H636 H 0.02443 0.19242 0.45384
 C637 C -0.02967 0.20773 0.39817
 H638 H -0.04487 0.21243 0.38274
 C639 C -0.03381 0.18535 0.41592
 H640 H -0.05209 0.17278 0.41391
 N641 N -0.00668 0.22353 0.40037
 C642 C 0.03493 0.26649 0.33294
 H643 H 0.02200 0.28451 0.33106
 C644 C 0.05675 0.26257 0.31452
 H645 H 0.06062 0.27774 0.29855
 C646 C 0.04527 0.22458 0.35592
 H647 H 0.04052 0.20961 0.37179
 C648 C 0.06735 0.21992 0.33801
 H649 H 0.07966 0.20149 0.34034
 Zn650 Zn -0.00074 0.25413 0.37674
 N651 N 0.02975 0.24772 0.35326
 C652 C 0.02883 0.30070 0.39638
 N653 N 0.00561 0.28530 0.39937
 C654 C -0.01315 0.29101 0.41950
 C655 C -0.00910 0.31322 0.43739
 C656 C 0.03363 0.32316 0.41378
 C657 C -0.03674 0.24055 0.33414
 C658 C -0.05865 0.24392 0.31601
 C659 C -0.06931 0.28711 0.33854
 C660 C -0.04713 0.28299 0.35618
 N661 N -0.03152 0.25986 0.35384
 H662 H 0.04380 0.29549 0.38070
 H663 H -0.03121 0.27816 0.42170
 H664 H -0.02413 0.31758 0.45339
 H665 H 0.05220 0.33515 0.41113
 H666 H -0.02374 0.22255 0.33248
 H667 H -0.06250 0.22834 0.30051
 H668 H -0.08167 0.30556 0.34058
 H669 H -0.04235 0.29837 0.37158
 C670 C 0.07321 0.23905 0.31706
 C671 C -0.01432 0.17947 0.43622
 C672 C -0.07518 0.26745 0.31818
 C673 C 0.01450 0.32955 0.43454
 C674 C -0.01233 0.71052 0.08094
 H675 H -0.03032 0.72343 0.07917
 C676 C -0.00872 0.68820 0.06303
 H677 H -0.02410 0.68396 0.04758
 C678 C 0.02978 0.70068 0.10310
 H679 H 0.04492 0.70579 0.11847
 C680 C 0.03413 0.67811 0.08568
 H681 H 0.05252 0.66581 0.08788
 N682 N 0.00668 0.71619 0.10064
 C683 C -0.03535 0.76009 0.16724
 H684 H -0.02241 0.77816 0.16898
 C685 C -0.05755 0.75652 0.18531
 H686 H -0.06178 0.77192 0.20098
 C687 C -0.04552 0.71779 0.14491
 H688 H -0.04060 0.70255 0.12938
 C689 C -0.06798 0.71347 0.16247
 H690 H -0.08020 0.69498 0.16013
 Zn691 Zn 0.00052 0.74725 0.12363
 N692 N -0.02996 0.74100 0.14733
 C693 C -0.02908 0.79354 0.10336
 N694 N -0.00613 0.77786 0.10028
 C695 C 0.01247 0.78316 0.07985
 C696 C 0.00866 0.80534 0.06186
 C697 C -0.03362 0.81599 0.08587
 C698 C 0.03744 0.73544 0.16623
 C699 C 0.05972 0.73978 0.18372
 C700 C 0.06907 0.78263 0.15990
 C701 C 0.04656 0.77756 0.14292
 N702 N 0.03145 0.75411 0.14614
 H703 H -0.04391 0.78872 0.11932
 H704 H 0.03036 0.77013 0.07764
 H705 H 0.02377 0.80934 0.04587
 H706 H -0.05184 0.82848 0.08861
 H707 H 0.02484 0.71719 0.16863
 H708 H 0.06436 0.72477 0.19961
 H709 H 0.08087 0.80135 0.15700
 H710 H 0.04115 0.79246 0.12729
 C711 C -0.07422 0.73308 0.18285
 C712 C 0.01474 0.67172 0.06540
 C713 C 0.07583 0.76355 0.18053
 C714 C -0.01459 0.82206 0.06491
 C715 C 0.48969 0.21423 0.58337
 H716 H 0.47163 0.22701 0.58142
 C717 C 0.49366 0.19196 0.56548
 H718 H 0.47856 0.18751 0.54975
 C719 C 0.53163 0.20463 0.60594
 H720 H 0.54659 0.20984 0.62146
 C721 C 0.53635 0.18211 0.58853
 H722 H 0.55485 0.17010 0.59100
 N723 N 0.50844 0.21997 0.60328
 C724 C 0.46543 0.26316 0.66972
 H725 H 0.47824 0.28131 0.67164
 C726 C 0.44325 0.25927 0.68774
 H727 H 0.43902 0.27459 0.70345
 C728 C 0.45564 0.22097 0.64699
 H729 H 0.46070 0.20591 0.63135
 C730 C 0.43320 0.21634 0.66451
 H731 H 0.42096 0.19783 0.66211
 Zn732 Zn 0.50182 0.25084 0.62641
 N733 N 0.47104 0.24426 0.64968
 C734 C 0.47205 0.29685 0.60596
 N735 N 0.49537 0.28166 0.60323
 C736 C 0.51420 0.28744 0.58315
 C737 C 0.51015 0.30955 0.56510
 C738 C 0.46727 0.31921 0.58842
 C739 C 0.53770 0.23848 0.66953
 C740 C 0.55963 0.24235 0.68755
 C741 C 0.57003 0.28533 0.66439
 C742 C 0.54783 0.28071 0.64684
 N743 N 0.53237 0.25742 0.64951
 H744 H 0.45702 0.29160 0.62160
 H745 H 0.53236 0.27477 0.58115
 H746 H 0.52528 0.31400 0.54920
 H747 H 0.44863 0.33104 0.59093
 H748 H 0.52483 0.22035 0.67146
 H749 H 0.56373 0.22711 0.70338
 H750 H 0.58214 0.30390 0.66194
 H751 H 0.54294 0.29580 0.63121
 C752 C 0.42685 0.23564 0.68512
 C753 C 0.51715 0.17559 0.56810
 C754 C 0.57609 0.26594 0.68496
 C755 C 0.48650 0.32573 0.56776
 C756 C 0.51376 0.71535 0.91490
 H757 H 0.53166 0.72851 0.91622
 C758 C 0.51040 0.69346 0.93343
 H759 H 0.52587 0.68977 0.94892
 C760 C 0.47161 0.70445 0.89323
 H761 H 0.45634 0.70900 0.87782
 C762 C 0.46751 0.68231 0.91127
 H763 H 0.44920 0.66975 0.90949
 N764 N 0.49460 0.72028 0.89517
 C765 C 0.53558 0.76341 0.82736
 H766 H 0.52247 0.78129 0.82547
 C767 C 0.55755 0.75978 0.80906
 H768 H 0.56134 0.77503 0.79315
 C769 C 0.54634 0.72163 0.85038
 H770 H 0.54173 0.70663 0.86627
 C771 C 0.56856 0.71726 0.83258
 H772 H 0.58113 0.69902 0.83500
 Zn773 Zn 0.50020 0.75085 0.87139
 N774 N 0.53057 0.74459 0.84768
 C775 C 0.52981 0.79748 0.89084
 N776 N 0.50665 0.78202 0.89396
 C777 C 0.48804 0.78762 0.91426
 C778 C 0.49218 0.80978 0.93219
 C779 C 0.53471 0.81989 0.90828
 C780 C 0.46376 0.73725 0.82909
 C781 C 0.44156 0.74055 0.81130
 C782 C 0.43088 0.78354 0.83420
 C783 C 0.45337 0.77951 0.85148
 N784 N 0.46913 0.75650 0.84881
 H785 H 0.54468 0.79235 0.87502
 H786 H 0.47003 0.77471 0.91658
 H787 H 0.47727 0.81404 0.94833
 H788 H 0.55324 0.83192 0.90554
 H789 H 0.47685 0.71934 0.82718
 H790 H 0.43759 0.72499 0.79580
 H791 H 0.41840 0.80187 0.83653
 H792 H 0.45824 0.79485 0.86688
 C793 C 0.57434 0.73650 0.81171
 C794 C 0.48704 0.67668 0.93161
 C795 C 0.42487 0.76393 0.81384
 C796 C 0.51573 0.82615 0.92922
 C797 C 0.12675 0.23158 0.30749
 C798 C 0.13006 0.20500 0.29009
 C799 C 0.13913 0.22273 0.26519
 C800 C 0.13606 0.24924 0.28242
 C801 C 0.10925 0.22510 0.25542
 C802 C 0.09994 0.20745 0.28049
 C803 C 0.09688 0.23395 0.29773
 C804 C 0.10592 0.25169 0.27284
 H805 H 0.13377 0.23438 0.32910
 H806 H 0.13963 0.18566 0.29759
 H807 H 0.15118 0.26638 0.28311
 H808 H 0.10222 0.22230 0.23381
 H809 H 0.08482 0.19031 0.27978
 H810 H 0.09619 0.27098 0.26542
 C811 C 0.62809 0.72998 0.80296
 C812 C 0.63216 0.70355 0.78549
 C813 C 0.64134 0.72155 0.76084
 C814 C 0.63752 0.74792 0.77813
 C815 C 0.61160 0.72345 0.75056
 C816 C 0.60216 0.70553 0.77539
 C817 C 0.59836 0.73188 0.79270
 C818 C 0.60751 0.74990 0.76805
 H819 H 0.63471 0.73279 0.82470
 H820 H 0.64192 0.68435 0.79308
 H821 H 0.65233 0.76531 0.77917
 H822 H 0.60499 0.72064 0.72882
 H823 H 0.58736 0.68813 0.77434
 H824 H 0.59758 0.76905 0.76055
 C825 C 0.39203 0.75008 0.77061
 C826 C 0.36191 0.75197 0.78077
 C827 C 0.35811 0.77814 0.76319
 C828 C 0.38798 0.77632 0.75287
 C829 C 0.36693 0.79645 0.78762
 C830 C 0.37099 0.77021 0.80539
 C831 C 0.40084 0.76837 0.79505
 C832 C 0.39705 0.79454 0.77747
 H833 H 0.40210 0.73091 0.76323
 H834 H 0.34720 0.73450 0.78204
 H835 H 0.39481 0.77897 0.73108
 H836 H 0.35690 0.81566 0.79495
 H837 H 0.36418 0.76757 0.82718
 H838 H 0.41176 0.81202 0.77618
 C839 C -0.10777 0.25354 0.27474
 C840 C -0.13796 0.25621 0.28452
 C841 C -0.14099 0.28220 0.26652
 C842 C -0.11106 0.27960 0.25654
 C843 C -0.13207 0.30070 0.29079
 C844 C -0.12876 0.27462 0.30897
 C845 C -0.09885 0.27201 0.29900
 C846 C -0.10189 0.29799 0.28099
 H847 H -0.09801 0.23405 0.26779
 H848 H -0.15303 0.23905 0.28591
 H849 H -0.10389 0.28178 0.23481
 H850 H -0.14154 0.32025 0.29794
 H851 H -0.13586 0.27244 0.33072
 H852 H -0.08679 0.31512 0.27963
 C853 C -0.09580 0.72671 0.23357
 C854 C -0.11900 0.74823 0.23722
 C855 C -0.14026 0.72465 0.23661
 C856 C -0.11733 0.70313 0.23320
 C857 C -0.14282 0.72733 0.20502
 C858 C -0.12129 0.75087 0.20540
 C859 C -0.09836 0.72934 0.20199
 C860 C -0.11964 0.70581 0.20140
 H861 H -0.07622 0.72640 0.24516
 H862 H -0.11821 0.76599 0.25166
 H863 H -0.11579 0.68346 0.24485
 H864 H -0.16236 0.72766 0.19335
 H865 H -0.12278 0.77053 0.19372
 H866 H -0.12032 0.68816 0.18682
 C867 C 0.37303 0.22826 0.69352
 C868 C 0.36912 0.20185 0.71115
 C869 C 0.35960 0.21988 0.73564
 C870 C 0.36324 0.24621 0.71818
 C871 C 0.38927 0.22228 0.74609
 C872 C 0.39904 0.20436 0.72142
 C873 C 0.40268 0.23068 0.70395
 C874 C 0.39317 0.24869 0.72843
 H875 H 0.36652 0.23085 0.67172
 H876 H 0.35975 0.18243 0.70351
 H877 H 0.34828 0.26340 0.71688
 H878 H 0.39585 0.21970 0.76787
 H879 H 0.41403 0.18720 0.72268
 H880 H 0.40283 0.26803 0.73588
 C881 C 0.59605 0.27255 0.73590
 C882 C 0.61936 0.25132 0.73992
 C883 C 0.64035 0.27517 0.73989
 C884 C 0.61726 0.29641 0.73610
 C885 C 0.64401 0.27273 0.70835
 C886 C 0.62278 0.24890 0.70816
 C887 C 0.59968 0.27012 0.70438
 C888 C 0.62065 0.29395 0.70433
 H889 H 0.57609 0.27254 0.74709
 H890 H 0.61821 0.23341 0.75418
 H891 H 0.61508 0.31600 0.74780
 H892 H 0.66394 0.27273 0.69710
 H893 H 0.62492 0.22933 0.69643
 H894 H 0.62150 0.31166 0.68980
 C895 C 0.12038 0.79248 0.19830
 C896 C 0.11770 0.79555 0.23006
 C897 C 0.14122 0.77477 0.23374
 C898 C 0.14415 0.77172 0.20219
 C899 C 0.12062 0.75062 0.23477
 C900 C 0.09686 0.77137 0.23089
 C901 C 0.09979 0.76833 0.19935
 C902 C 0.12331 0.74756 0.20301
 H903 H 0.12067 0.80991 0.18342
 H904 H 0.11553 0.81533 0.24141
 H905 H 0.16383 0.77181 0.19051
 H906 H 0.12032 0.73312 0.24956
 H907 H 0.07718 0.77128 0.24256
 H908 H 0.12548 0.72777 0.19165
 C909 C 0.29762 0.11953 0.20509
 C910 C 0.26616 0.11649 0.20209
 C911 C 0.26208 0.13994 0.22315
 C912 C 0.29333 0.14323 0.22612
 C913 C 0.26133 0.11903 0.24716
 C914 C 0.26561 0.09535 0.22613
 C915 C 0.29683 0.09864 0.22911
 C916 C 0.29278 0.12210 0.25015
 H917 H 0.31245 0.12006 0.18759
 H918 H 0.25497 0.11434 0.18229
 H919 H 0.30459 0.16316 0.22616
 H920 H 0.24664 0.11837 0.26477
 H921 H 0.25434 0.07542 0.22609
 H922 H 0.30396 0.12426 0.26995
 C923 C 0.78033 0.60076 0.70610
 C924 C 0.75528 0.61027 0.72345
 C925 C 0.76543 0.64027 0.72109
 C926 C 0.79030 0.63102 0.70363
 C927 C 0.78200 0.63712 0.74786
 C928 C 0.77202 0.60687 0.75031
 C929 C 0.79690 0.59761 0.73288
 C930 C 0.80707 0.62760 0.73050
 H931 H 0.77972 0.58553 0.68897
 H932 H 0.73380 0.60331 0.72041
 H933 H 0.79814 0.64066 0.68432
 H934 H 0.78260 0.65235 0.76499
 H935 H 0.76413 0.59720 0.76959
 H936 H 0.82855 0.63454 0.73354
 C937 C 0.76938 0.39104 0.75378
 C938 C 0.77908 0.36072 0.75594
 C939 C 0.76132 0.35705 0.78210
 C940 C 0.75141 0.38710 0.78002
 C941 C 0.78546 0.36595 0.80050
 C942 C 0.80340 0.36986 0.77428
 C943 C 0.79352 0.39991 0.77220
 C944 C 0.77572 0.39625 0.79834
 H945 H 0.76246 0.40117 0.73447
 H946 H 0.78037 0.34584 0.73853
 H947 H 0.72984 0.39403 0.78250
 H948 H 0.79251 0.35604 0.81987
 H949 H 0.82497 0.36293 0.77180
 H950 H 0.77442 0.41112 0.81575
 C951 C 0.29732 -0.12105 0.29231
 C952 C 0.26578 -0.11846 0.29509
 C953 C 0.26238 -0.14176 0.27377
 C954 C 0.29372 -0.14458 0.27099
 C955 C 0.26188 -0.12064 0.24993
 C956 C 0.26552 -0.09709 0.27124
 C957 C 0.29685 -0.09991 0.26851
 C958 C 0.29345 -0.12320 0.24719
 H959 H 0.31175 -0.12164 0.30994
 H960 H 0.25418 -0.11660 0.31484
 H961 H 0.30524 -0.16432 0.27082
 H962 H 0.24759 -0.11996 0.23218
 H963 H 0.25407 -0.07731 0.27140
 H964 H 0.30508 -0.12501 0.22745
 C965 C 0.22671 -0.11004 0.74934
 C966 C 0.21723 -0.14047 0.74714
 C967 C 0.23470 -0.14372 0.72073
 C968 C 0.24438 -0.11356 0.72286
 C969 C 0.21025 -0.13503 0.70266
 C970 C 0.19260 -0.13150 0.72916
 C971 C 0.20227 -0.10135 0.73130
 C972 C 0.21975 -0.10461 0.70490
 H973 H 0.23383 -0.09999 0.76863
 H974 H 0.21625 -0.15546 0.76450
 H975 H 0.26584 -0.10627 0.72013
 H976 H 0.20293 -0.14479 0.68331
 H977 H 0.17112 -0.13870 0.73189
 H978 H 0.22071 -0.08960 0.68757
 C979 C 0.70225 0.38271 0.20335
 C980 C 0.73378 0.38565 0.20061
 C981 C 0.73736 0.36274 0.22232
 C982 C 0.70604 0.35953 0.22504
 C983 C 0.73755 0.38425 0.24577
 C984 C 0.73378 0.40739 0.22409
 C985 C 0.70248 0.40419 0.22681
 C986 C 0.70604 0.38126 0.24850
 H987 H 0.68781 0.38177 0.18573
 H988 H 0.74544 0.38731 0.18087
 H989 H 0.69476 0.33961 0.22549
 H990 H 0.75180 0.38536 0.26353
 H991 H 0.74506 0.42731 0.22364
 H992 H 0.69439 0.37958 0.26823
 C993 C 0.70583 0.62542 0.24693
 C994 C 0.70504 0.64652 0.27096
 C995 C 0.73623 0.64323 0.27436
 C996 C 0.73723 0.62237 0.25034
 C997 C 0.73177 0.61974 0.29534
 C998 C 0.70037 0.62278 0.29192
 C999 C 0.70139 0.60193 0.26790
 C1000 C 0.73257 0.59864 0.27130
 H1001 H 0.69492 0.62762 0.22697
 H1002 H 0.69385 0.66644 0.27077
 H1003 H 0.75219 0.62181 0.23296
 H1004 H 0.74268 0.61755 0.31530
 H1005 H 0.68532 0.62333 0.30921
 H1006 H 0.74376 0.57871 0.27148
 C1007 C 0.19451 0.12619 0.76806
 C1008 C 0.21194 0.12997 0.79440
 C1009 C 0.23654 0.13862 0.77616
 C1010 C 0.21928 0.13506 0.74988
 C1011 C 0.24621 0.10847 0.77425
 C1012 C 0.22144 0.09959 0.79241
 C1013 C 0.20415 0.09605 0.76615
 C1014 C 0.22874 0.10464 0.74788
 H1015 H 0.17305 0.13331 0.76539
 H1016 H 0.20457 0.13997 0.81369
 H1017 H 0.21849 0.14992 0.73242
 H1018 H 0.26766 0.10134 0.77691
 H1019 H 0.22225 0.08475 0.80987
 H1020 H 0.23595 0.09440 0.72866
 C1021 C 0.22956 0.30505 0.12753
 C1022 C 0.20329 0.28743 0.13125
 C1023 C 0.22114 0.26290 0.14037
 C1024 C 0.24735 0.28034 0.13689
 C1025 C 0.22354 0.25280 0.11029
 C1026 C 0.20577 0.27750 0.10092
 C1027 C 0.23195 0.29497 0.09746
 C1028 C 0.24983 0.27045 0.10654
 H1029 H 0.23216 0.32673 0.13445
 H1030 H 0.18401 0.29483 0.14102
 H1031 H 0.26440 0.28142 0.15195
 H1032 H 0.22094 0.23112 0.10337
 H1033 H 0.18871 0.27641 0.08587
 H1034 H 0.26905 0.26315 0.09657
 C1035 C 0.72730 0.76830 0.59344
 C1036 C 0.74825 0.76407 0.61698
 C1037 C 0.72445 0.76415 0.63810
 C1038 C 0.70349 0.76817 0.61481
 C1039 C 0.72712 0.79559 0.64168
 C1040 C 0.75092 0.79573 0.62031
 C1041 C 0.72995 0.79973 0.59702
 C1042 C 0.70617 0.79981 0.61815
 H1043 H 0.72732 0.75722 0.57335
 H1044 H 0.76581 0.74955 0.61613
 H1045 H 0.68394 0.75659 0.61268
 H1046 H 0.72710 0.80668 0.66176
 H1047 H 0.77047 0.80731 0.62244
 H1048 H 0.68865 0.81437 0.61904
 C1049 C 0.74873 0.79803 0.37531
 C1050 C 0.77289 0.79830 0.35435
 C1051 C 0.77566 0.76686 0.35770
 C1052 C 0.75150 0.76636 0.37841
 C1053 C 0.79619 0.77084 0.38141
 C1054 C 0.79341 0.80249 0.37829
 C1055 C 0.76927 0.80199 0.39901
 C1056 C 0.77201 0.77055 0.40236
 H1057 H 0.72916 0.80945 0.37293
 H1058 H 0.77321 0.80959 0.33437
 H1059 H 0.73400 0.75169 0.37884
 H1060 H 0.81575 0.75942 0.38378
 H1061 H 0.81087 0.81721 0.37783
 H1062 H 0.77170 0.75927 0.42234
 C1063 C 0.25131 0.29437 -0.12456
 C1064 C 0.27531 0.29460 -0.14571
 C1065 C 0.27798 0.26314 -0.14245
 C1066 C 0.25399 0.26270 -0.12153
 C1067 C 0.29872 0.26698 -0.11891
 C1068 C 0.29603 0.29866 -0.12191
 C1069 C 0.27204 0.29818 -0.10101
 C1070 C 0.27471 0.26673 -0.09777
 H1071 H 0.23177 0.30586 -0.12675
 H1072 H 0.27552 0.30592 -0.16567
 H1073 H 0.23638 0.24817 -0.12089
 H1074 H 0.31826 0.25548 -0.11673
 H1075 H 0.31351 0.31336 -0.12239
 H1076 H 0.27451 0.25540 -0.07781
 C1077 C 0.70473 0.21729 -0.09733
 C1078 C 0.72225 0.24231 -0.10671
 C1079 C 0.72013 0.23232 -0.13682
 C1080 C 0.70251 0.20747 -0.12769
 C1081 C 0.74651 0.21527 -0.13363
 C1082 C 0.74872 0.22509 -0.10328
 C1083 C 0.73111 0.20023 -0.09414
 C1084 C 0.72897 0.19024 -0.12424
 H1085 H 0.68758 0.21803 -0.08213
 H1086 H 0.71936 0.26391 -0.09966
 H1087 H 0.68338 0.19990 -0.13744
 H1088 H 0.76366 0.21454 -0.14883
 H1089 H 0.76781 0.23271 -0.09349
 H1090 H 0.73187 0.16863 -0.13127
 C1091 C 0.22704 0.73176 0.40150
 C1092 C 0.24801 0.73621 0.37772
 C1093 C 0.22433 0.73525 0.35680
 C1094 C 0.20334 0.73102 0.38033
 C1095 C 0.22767 0.70385 0.35361
 C1096 C 0.25136 0.70458 0.37478
 C1097 C 0.23036 0.70036 0.39830
 C1098 C 0.20669 0.69941 0.37738
 H1099 H 0.22674 0.74310 0.42143
 H1100 H 0.26526 0.75116 0.37822
 H1101 H 0.18355 0.74213 0.38247
 H1102 H 0.22797 0.69250 0.33368
 H1103 H 0.27115 0.69347 0.37263
 H1104 H 0.18948 0.68440 0.37684
 C1105 C 0.29435 0.71979 0.59996
 C1106 C 0.27608 0.74423 0.60925
 C1107 C 0.27820 0.73421 0.63936
 C1108 C 0.29655 0.70995 0.63032
 C1109 C 0.25231 0.71637 0.63589
 C1110 C 0.25011 0.72621 0.60553
 C1111 C 0.26846 0.70194 0.59650
 C1112 C 0.27059 0.69192 0.62660
 H1113 H 0.31160 0.72112 0.58491
 H1114 H 0.27846 0.76594 0.60227
 H1115 H 0.31579 0.70290 0.64020
 H1116 H 0.23506 0.71505 0.65093
 H1117 H 0.23092 0.73326 0.59558
 H1118 H 0.26821 0.67021 0.63356
 C1119 C 0.75151 0.22818 0.11083
 C1120 C 0.75362 0.21926 0.14148
 C1121 C 0.77975 0.23686 0.14437
 C1122 C 0.77772 0.24597 0.11397
 C1123 C 0.79776 0.21208 0.13607
 C1124 C 0.77156 0.19429 0.13293
 C1125 C 0.76952 0.20340 0.10254
 C1126 C 0.79564 0.22101 0.10542
 H1127 H 0.73240 0.23517 0.10067
 H1128 H 0.73637 0.21865 0.15657
 H1129 H 0.78038 0.26742 0.10631
 H1130 H 0.81692 0.20506 0.14610
 H1131 H 0.76890 0.17284 0.14058
 H1132 H 0.81290 0.22165 0.09034
 C1133 C 0.45807 0.37022 0.54903
 C1134 C 0.47880 0.39406 0.54452
 C1135 C 0.47578 0.39064 0.51305
 C1136 C 0.45505 0.36703 0.51736
 C1137 C 0.49973 0.36995 0.51235
 C1138 C 0.50275 0.37312 0.54404
 C1139 C 0.48200 0.34951 0.54834
 C1140 C 0.47901 0.34608 0.51688
 H1141 H 0.44071 0.37076 0.56397
 H1142 H 0.47876 0.41402 0.55576
 H1143 H 0.43538 0.36466 0.50615
 H1144 H 0.51711 0.36951 0.49743
 H1145 H 0.52241 0.37549 0.55526
 H1146 H 0.47905 0.32611 0.50564
 C1147 C -0.00147 0.85547 0.02146
 C1148 C -0.02779 0.85966 0.00423
 C1149 C -0.02953 0.88959 0.01468
 C1150 C -0.00330 0.88564 0.03174
 C1151 C -0.04743 0.88045 0.03942
 C1152 C -0.04559 0.85025 0.02915
 C1153 C -0.01935 0.84632 0.04621
 C1154 C -0.02112 0.87624 0.05666
 H1155 H 0.01751 0.84545 0.01368
 H1156 H -0.03066 0.85300 -0.01753
 H1157 H 0.01406 0.90047 0.03272
 H1158 H -0.06645 0.89045 0.04713
 H1159 H -0.06295 0.83542 0.02816
 H1160 H -0.01825 0.88289 0.07842
 C1161 C 0.02204 0.61763 0.05708
 C1162 C 0.00387 0.60778 0.03282
 C1163 C 0.02980 0.60433 0.01485
 C1164 C 0.04806 0.61390 0.03894
 C1165 C 0.02724 0.63419 0.00435
 C1166 C 0.00122 0.63791 0.02252
 C1167 C 0.01945 0.64748 0.04660
 C1168 C 0.04538 0.64403 0.02863
 H1169 H 0.01977 0.61099 0.07895
 H1170 H -0.01319 0.59263 0.03450
 H1171 H 0.06747 0.60454 0.04623
 H1172 H 0.02950 0.64091 -0.01750
 H1173 H -0.01813 0.64754 0.01541
 H1174 H 0.06240 0.65920 0.02698
 C1175 C 0.54522 0.13069 0.54918
 C1176 C 0.52426 0.10695 0.54549
 C1177 C 0.52683 0.11004 0.51391
 C1178 C 0.54781 0.13353 0.51738
 C1179 C 0.50304 0.13093 0.51367
 C1180 C 0.50046 0.12807 0.54546
 C1181 C 0.52143 0.15157 0.54891
 C1182 C 0.52400 0.15465 0.51734
 H1183 H 0.56277 0.13023 0.56366
 H1184 H 0.52431 0.08709 0.55695
 H1185 H 0.56732 0.13563 0.50560
 H1186 H 0.48541 0.13145 0.49929
 H1187 H 0.48094 0.12596 0.55724
 H1188 H 0.52394 0.17451 0.50589
 C1189 C -0.02104 0.12540 0.44488
 C1190 C -0.00277 0.11591 0.46918
 C1191 C -0.02866 0.11216 0.48717
 C1192 C -0.04699 0.12141 0.46306
 C1193 C -0.02635 0.14209 0.49752
 C1194 C -0.00039 0.14610 0.47933
 C1195 C -0.01873 0.15532 0.45522
 C1196 C -0.04461 0.15159 0.47323
 H1197 H -0.01873 0.11870 0.42305
 H1198 H 0.01439 0.10096 0.46760
 H1199 H -0.06630 0.11161 0.45598
 H1200 H -0.02866 0.14879 0.51936
 H1201 H 0.01887 0.15604 0.48635
 H1202 H -0.06178 0.16653 0.47482
 C1203 C 0.47997 0.62286 0.94112
 C1204 C 0.49803 0.61349 0.96563
 C1205 C 0.47201 0.61029 0.98355
 C1206 C 0.45388 0.61941 0.95920
 C1207 C 0.47459 0.64034 0.99352
 C1208 C 0.50068 0.64382 0.97536
 C1209 C 0.48254 0.65289 0.95104
 C1210 C 0.45656 0.64969 0.96899
 H1211 H 0.48230 0.61583 0.91939
 H1212 H 0.51506 0.59836 0.96431
 H1213 H 0.43445 0.61002 0.95191
 H1214 H 0.47226 0.64741 1.01523
 H1215 H 0.52001 0.65371 0.98227
 H1216 H 0.43955 0.66484 0.97029
 C1217 C 0.49976 0.87326 0.95327
 C1218 C 0.50262 0.86959 0.98491
 C1219 C 0.52664 0.89031 0.98463
 C1220 C 0.52379 0.89422 0.95320
 C1221 C 0.54732 0.86679 0.98009
 C1222 C 0.52328 0.84584 0.98017
 C1223 C 0.52044 0.84973 0.94876
 C1224 C 0.54446 0.87044 0.94844
 H1225 H 0.48016 0.87579 0.94199
 H1226 H 0.48512 0.86881 0.99968
 H1227 H 0.52396 0.91436 0.94226
 H1228 H 0.56692 0.86427 0.99137
 H1229 H 0.52311 0.82570 0.99112
 H1230 H 0.56186 0.87113 0.93356
 C1231 C 0.02196 0.34952 0.48543
 C1232 C 0.04594 0.37055 0.48524
 C1233 C 0.02518 0.39403 0.48965
 C1234 C 0.00120 0.37323 0.49008
 C1235 C 0.02230 0.39778 0.45820
 C1236 C 0.04304 0.37403 0.45357
 C1237 C 0.01909 0.35324 0.45400
 C1238 C -0.00167 0.37672 0.45840
 H1239 H 0.02186 0.32943 0.49648
 H1240 H 0.06557 0.36810 0.49649
 H1241 H -0.01637 0.37232 0.50475
 H1242 H 0.02237 0.41783 0.44710
 H1243 H 0.06043 0.37472 0.43867
 H1244 H -0.02128 0.37912 0.44712
 C1245 C 0.37314 0.54367 0.49955
 C1246 C 0.37057 0.51194 0.49678
 C1247 C 0.39143 0.51270 0.47272
 C1248 C 0.39424 0.54421 0.47548
 C1249 C 0.36814 0.51621 0.45170
 C1250 C 0.34703 0.51566 0.47578
 C1251 C 0.34985 0.54716 0.47851
 C1252 C 0.37073 0.54791 0.45447
 H1253 H 0.37505 0.55521 0.51927
 H1254 H 0.37018 0.49730 0.51443
 H1255 H 0.41390 0.55582 0.47541
 H1256 H 0.36622 0.50468 0.43197
 H1257 H 0.32737 0.50406 0.47585
 H1258 H 0.37121 0.56257 0.43684
 C1259 C 0.85896 0.02144 0.00286
 C1260 C 0.86230 0.00393 -0.02372
 C1261 C 0.89221 0.01390 -0.02636
 C1262 C 0.88912 0.03121 0.00014
 C1263 C 0.88320 0.03859 -0.04422
 C1264 C 0.85304 0.02880 -0.04146
 C1265 C 0.84995 0.04612 -0.01496
 C1266 C 0.87984 0.05608 -0.01763
 H1267 H 0.84922 0.01403 0.02230
 H1268 H 0.85517 -0.01767 -0.02637
 H1269 H 0.90420 0.03215 0.01722
 H1270 H 0.89268 0.04615 -0.06373
 H1271 H 0.83794 0.02789 -0.05852
 H1272 H 0.88688 0.07771 -0.01498
 C1273 C 0.62932 0.04269 0.00299
 C1274 C 0.63173 0.01096 0.00560
 C1275 C 0.61044 0.01153 0.02930
 C1276 C 0.60780 0.04306 0.02668
 C1277 C 0.63337 0.01489 0.05076
 C1278 C 0.65490 0.01451 0.02705
 C1279 C 0.65225 0.04603 0.02445
 C1280 C 0.63097 0.04662 0.04814
 H1281 H 0.62780 0.05436 -0.01670
 H1282 H 0.63246 -0.00350 -0.01216
 H1283 H 0.58820 0.05468 0.02647
 H1284 H 0.63488 0.00321 0.07045
 H1285 H 0.67450 0.00290 0.02726
 H1286 H 0.63030 0.06118 0.06583
 C1287 C 0.14878 0.52834 0.54538
 C1288 C 0.11887 0.53867 0.54823
 C1289 C 0.10925 0.51426 0.53031
 C1290 C 0.13891 0.50376 0.52755
 C1291 C 0.11267 0.53165 0.50389
 C1292 C 0.12253 0.55624 0.52173
 C1293 C 0.15219 0.54574 0.51896
 C1294 C 0.14260 0.52134 0.50103
 H1295 H 0.16389 0.52705 0.56240
 H1296 H 0.10947 0.54619 0.56777
 H1297 H 0.14548 0.48199 0.53007
 H1298 H 0.09756 0.53293 0.48687
 H1299 H 0.11596 0.57801 0.51920
 H1300 H 0.15214 0.51389 0.48154
 C1301 C 0.14363 0.47563 0.00026
 C1302 C 0.13948 0.49331 -0.02607
 C1303 C 0.10970 0.48285 -0.02780
 C1304 C 0.11358 0.46538 -0.00154
 C1305 C 0.11877 0.45847 -0.04614
 C1306 C 0.14880 0.46875 -0.04430
 C1307 C 0.15268 0.45126 -0.01807
 C1308 C 0.12292 0.44082 -0.01981
 H1309 H 0.15365 0.48302 0.01942
 H1310 H 0.14618 0.51506 -0.02877
 H1311 H 0.09886 0.46404 0.01603
 H1312 H 0.10910 0.45087 -0.06540
 H1313 H 0.16355 0.47006 -0.06185
 H1314 H 0.11629 0.41905 -0.01711
 C1315 C 0.64149 0.98088 0.49948
 C1316 C 0.63762 0.99864 0.47315
 C1317 C 0.60786 0.98820 0.47107
 C1318 C 0.61145 0.97066 0.49732
 C1319 C 0.61713 0.96385 0.45276
 C1320 C 0.64713 0.97412 0.45495
 C1321 C 0.65071 0.95655 0.48118
 C1322 C 0.62097 0.94615 0.47909
 H1323 H 0.65133 0.98817 0.51877
 H1324 H 0.64436 1.02039 0.47058
 H1325 H 0.59655 0.96929 0.51473
 H1326 H 0.60772 0.95625 0.43337
 H1327 H 0.66206 0.97546 0.43757
 H1328 H 0.61429 0.92438 0.48166
 C1329 C 0.85670 0.98085 0.50104
 C1330 C 0.86072 0.99791 0.52777
 C1331 C 0.89055 0.98773 0.52928
 C1332 C 0.88678 0.97085 0.50264
 C1333 C 0.88164 0.96284 0.54704
 C1334 C 0.85154 0.97284 0.54543
 C1335 C 0.84778 0.95596 0.51879
 C1336 C 0.87760 0.94577 0.52032
 H1337 H 0.84669 0.98864 0.48204
 H1338 H 0.85394 1.01953 0.53096
 H1339 H 0.90154 0.97011 0.48508
 H1340 H 0.89160 0.95511 0.56608
 H1341 H 0.83678 0.97358 0.56299
 H1342 H 0.88436 0.92414 0.51712
 C1343 C 0.37280 0.45598 -0.00199
 C1344 C 0.36970 0.48760 0.00117
 C1345 C 0.39070 0.48703 0.02483
 C1346 C 0.39404 0.45562 0.02167
 C1347 C 0.36760 0.48281 0.04625
 C1348 C 0.34636 0.48317 0.02257
 C1349 C 0.34969 0.45178 0.01942
 C1350 C 0.37069 0.45118 0.04308
 H1351 H 0.37480 0.44470 -0.02188
 H1352 H 0.36886 0.50234 -0.01636
 H1353 H 0.41389 0.44443 0.02125
 H1354 H 0.36562 0.49409 0.06614
 H1355 H 0.32651 0.49436 0.02299
 H1356 H 0.37143 0.43631 0.06051
 C1357 C 0.54456 0.50130 0.36980
 C1358 C 0.51309 0.49785 0.36739
 C1359 C 0.51425 0.47384 0.38825
 C1360 C 0.54551 0.47727 0.39090
 C1361 C 0.51817 0.45296 0.36461
 C1362 C 0.51721 0.47700 0.34350
 C1363 C 0.54846 0.48043 0.34614
 C1364 C 0.54964 0.45642 0.36700
 H1365 H 0.55564 0.52122 0.37180
 H1366 H 0.49826 0.51519 0.36715
 H1367 H 0.55702 0.47743 0.41063
 H1368 H 0.50709 0.43304 0.36262
 H1369 H 0.50571 0.47685 0.32377
 H1370 H 0.56457 0.43917 0.36722
 C1371 C 0.02879 -0.04433 0.85193
 C1372 C 0.03824 -0.04678 0.88231
 C1373 C 0.01409 -0.02827 0.89125
 C1374 C 0.00447 -0.02590 0.86110
 C1375 C 0.03200 -0.00229 0.88783
 C1376 C 0.05633 -0.02073 0.87865
 C1377 C 0.04672 -0.01838 0.84851
 C1378 C 0.02258 0.00015 0.85741
 H1379 H 0.02755 -0.06160 0.83691
 H1380 H 0.04513 -0.06623 0.89215
 H1381 H -0.01704 -0.02814 0.85404
 H1382 H 0.03322 0.01497 0.90286
 H1383 H 0.07784 -0.01849 0.88571
 H1384 H 0.01583 0.01955 0.84737
 C1385 C 0.02302 -0.00058 0.64229
 C1386 C 0.00567 0.02595 0.63924
 C1387 C 0.01519 0.02840 0.60893
 C1388 C 0.03235 0.00195 0.61174
 C1389 C 0.03990 0.04621 0.61759
 C1390 C 0.03055 0.04367 0.64813
 C1391 C 0.04773 0.01723 0.65093
 C1392 C 0.05726 0.01968 0.62064
 H1393 H 0.01574 -0.01992 0.65223
 H1394 H -0.01573 0.02866 0.64673
 H1395 H 0.03300 -0.01516 0.59650
 H1396 H 0.04722 0.06558 0.60775
 H1397 H 0.02989 0.06079 0.66336
 H1398 H 0.07866 0.01698 0.61316
 C1399 C 0.54486 0.50249 0.12366
 C1400 C 0.51335 0.50512 0.12680
 C1401 C 0.51380 0.52920 0.10597
 C1402 C 0.54510 0.52657 0.10261
 C1403 C 0.51751 0.55012 0.12957
 C1404 C 0.51725 0.52602 0.15063
 C1405 C 0.54853 0.52339 0.14728
 C1406 C 0.54902 0.54747 0.12647
 H1407 H 0.55633 0.48285 0.12136
 H1408 H 0.49893 0.48738 0.12737
 H1409 H 0.55643 0.52675 0.08262
 H1410 H 0.50602 0.56976 0.13186
 H1411 H 0.50592 0.52584 0.17062
 H1412 H 0.56360 0.56509 0.12600
 C1413 C 0.47821 -0.00067 0.14436
 C1414 C 0.49562 -0.02712 0.14061
 C1415 C 0.48605 -0.02908 0.11041
 C1416 C 0.46886 -0.00271 0.11389
 C1417 C 0.46137 -0.04707 0.11916
 C1418 C 0.47077 -0.04503 0.14960
 C1419 C 0.45354 -0.01868 0.15306
 C1420 C 0.44400 -0.02064 0.12287
 H1421 H 0.48544 0.01849 0.15454
 H1422 H 0.51704 -0.02991 0.14774
 H1423 H 0.46817 0.01466 0.09894
 H1424 H 0.45400 -0.06631 0.10922
 H1425 H 0.47147 -0.06241 0.16454
 H1426 H 0.42258 -0.01785 0.11574
 C1427 C 0.98195 0.47567 0.65902
 C1428 C 0.98136 0.45225 0.63723
 C1429 C 0.98568 0.47382 0.61426
 C1430 C 0.98650 0.49722 0.63579
 C1431 C 0.95447 0.47722 0.61116
 C1432 C 0.94994 0.45566 0.63437
 C1433 C 0.95075 0.47904 0.65591
 C1434 C 0.95507 0.50062 0.63293
 H1435 H 0.99310 0.47498 0.67895
 H1436 H 0.99241 0.43232 0.63885
 H1437 H 1.00136 0.51456 0.63671
 H1438 H 0.94331 0.47792 0.59124
 H1439 H 0.93505 0.43835 0.63338
 H1440 H 0.94401 0.52055 0.63131
 C1441 C 0.98045 0.51963 0.84964
 C1442 C 0.98073 0.54362 0.87079
 C1443 C 0.98497 0.52258 0.89420
 C1444 C 0.98489 0.49862 0.87328
 C1445 C 0.95375 0.51986 0.89831
 C1446 C 0.94930 0.54088 0.87465
 C1447 C 0.94924 0.51691 0.85373
 C1448 C 0.95345 0.49588 0.87715
 H1449 H 0.99130 0.51959 0.82938
 H1450 H 0.99219 0.56330 0.86830
 H1451 H 0.99928 0.48094 0.87230
 H1452 H 0.94290 0.51990 0.91857
 H1453 H 0.93476 0.55845 0.87556
 H1454 H 0.94199 0.47621 0.87964
 C1455 C 0.48031 0.02399 0.34651
 C1456 C 0.47998 0.04799 0.36764
 C1457 C 0.48417 0.02703 0.39113
 C1458 C 0.48470 0.00305 0.37022
 C1459 C 0.45294 0.02389 0.39481
 C1460 C 0.44853 0.04483 0.37106
 C1461 C 0.44909 0.02084 0.35017
 C1462 C 0.45326 -0.00011 0.37367
 H1463 H 0.49143 0.02408 0.32640
 H1464 H 0.49120 0.06782 0.36530
 H1465 H 0.49934 -0.01444 0.36943
 H1466 H 0.44182 0.02380 0.41492
 H1467 H 0.43374 0.06219 0.37174
 H1468 H 0.44204 -0.01993 0.37601
   
