data_POSCAR
  _audit_creation_date              2014-09-24
  _audit_creation_method            'ToBaCCo'
  _symmetry_space_group_name_H-M    'P1'
  _symmetry_Int_Tables_number       1
  _symmetry_cell_setting            triclinic
  loop_
  _symmetry_equiv_pos_as_xyz
 x,y,z
_cell_length_a 51.1732
_cell_length_b 50.9856
_cell_length_c 50.9951
_cell_angle_alpha 90.035100
_cell_angle_beta 89.986700
_cell_angle_gamma 89.936100
loop_
  _atom_site_label
  _atom_site_type_symbol
  _atom_site_fract_x
  _atom_site_fract_y
  _atom_site_fract_z
C1 C 0.36881 1.34791 0.33187
 C2 C 0.36972 1.33190 0.35420
 C3 C 0.35212 1.33580 0.37435
 C4 C 0.33350 1.35586 0.37259
 C5 C 0.33264 1.37177 0.35068
 C6 C 0.35042 1.36770 0.33008
 C7 C 0.38302 1.34801 0.30900
 N8 N 0.37354 1.36719 0.29299
 C9 C 0.35379 1.37954 0.30606
 C10 C 0.31166 1.38843 0.35380
 N11 N 0.30003 1.38334 0.37732
 C12 C 0.31311 1.36300 0.38859
 C13 C 0.35643 1.31654 0.39270
 N14 N 0.37641 1.30105 0.38428
 C15 C 0.38450 1.31031 0.36063
 H16 H 0.39934 1.33521 0.30477
 H17 H 0.34267 1.39600 0.29860
 H18 H 0.30475 1.40244 0.33944
 H19 H 0.30760 1.35330 0.40664
 H20 H 0.34502 1.31359 0.41029
 H21 H 0.39955 1.30141 0.34863
 C22 C 0.37113 0.85066 0.83431
 C23 C 0.37064 0.83341 0.85568
 C24 C 0.35170 0.83606 0.87478
 C25 C 0.33293 0.85599 0.87278
 C26 C 0.33334 0.87302 0.85171
 C27 C 0.35259 0.87030 0.83225
 C28 C 0.38693 0.85218 0.81257
 N29 N 0.37869 0.87247 0.79734
 C30 C 0.35746 0.88342 0.80916
 C31 C 0.31228 0.88964 0.85452
 N32 N 0.29936 0.88343 0.87708
 C33 C 0.31172 0.86244 0.88797
 C34 C 0.35537 0.81617 0.89260
 N35 N 0.37628 0.80157 0.88491
 C36 C 0.38553 0.81191 0.86217
 H37 H 0.40280 0.83891 0.80805
 H38 H 0.34625 0.89965 0.80134
 H39 H 0.30641 0.90456 0.84063
 H40 H 0.30534 0.85211 0.90538
 H41 H 0.34305 0.81226 0.90937
 H42 H 0.40164 0.80398 0.85090
 C43 C 0.87118 1.35016 0.83166
 C44 C 0.87060 1.33301 0.85314
 C45 C 0.85022 1.33421 0.87087
 C46 C 0.83000 1.35241 0.86727
 C47 C 0.83051 1.36927 0.84608
 C48 C 0.85132 1.36820 0.82818
 C49 C 0.88803 1.35265 0.81080
 N50 N 0.87913 1.37209 0.79475
 C51 C 0.85646 1.38142 0.80525
 C52 C 0.80811 1.38419 0.84715
 N53 N 0.79377 1.37663 0.86840
 C54 C 0.80735 1.35736 0.88090
 C55 C 0.85403 1.31450 0.88888
 N56 N 0.87642 1.30148 0.88269
 C57 C 0.88646 1.31256 0.86063
 H58 H 0.90497 1.34044 0.80740
 H59 H 0.84430 1.39645 0.79650
 H60 H 0.80308 1.39954 0.83346
 H61 H 0.80106 1.34750 0.89862
 H62 H 0.84076 1.30938 0.90456
 H63 H 0.90363 1.30565 0.85032
 C64 C 0.87265 0.85106 0.33285
 C65 C 0.87198 0.83334 0.35386
 C66 C 0.85281 0.83555 0.37278
 C67 C 0.83398 0.85541 0.37097
 C68 C 0.83458 0.87292 0.35030
 C69 C 0.85410 0.87070 0.33103
 C70 C 0.88862 0.85306 0.31126
 N71 N 0.88056 0.87376 0.29641
 C72 C 0.85912 0.88433 0.30829
 C73 C 0.81347 0.88944 0.35328
 N74 N 0.80032 0.88257 0.37545
 C75 C 0.81260 0.86147 0.38608
 C76 C 0.85638 0.81542 0.39032
 N77 N 0.87750 0.80110 0.38269
 C78 C 0.88693 0.81182 0.36019
 H79 H 0.90440 0.83975 0.30654
 H80 H 0.84776 0.90057 0.30070
 H81 H 0.80774 0.90481 0.33983
 H82 H 0.80608 0.85090 0.40328
 H83 H 0.84390 0.81118 0.40688
 H84 H 0.90324 0.80418 0.34901
 C85 C 0.62715 0.64311 0.33336
 C86 C 0.62695 0.66456 0.35057
 C87 C 0.64608 0.66689 0.36955
 C88 C 0.66567 0.64772 0.37163
 C89 C 0.66586 0.62660 0.35461
 C90 C 0.64646 0.62428 0.33535
 C91 C 0.61168 0.63641 0.31237
 N92 N 0.62081 0.61369 0.30170
 C93 C 0.64242 0.60641 0.31554
 C94 C 0.68747 0.61169 0.36051
 N95 N 0.70021 0.62291 0.38104
 C96 C 0.68717 0.64524 0.38764
 C97 C 0.64142 0.68997 0.38278
 N98 N 0.61976 0.70157 0.37253
 C99 C 0.61099 0.68617 0.35258
 H100 H 0.59532 0.64767 0.30493
 H101 H 0.65504 0.58997 0.31108
 H102 H 0.69377 0.59421 0.35023
 H103 H 0.69322 0.65909 0.40253
 H104 H 0.65311 0.69796 0.39857
 H105 H 0.59465 0.69051 0.33987
 C106 C 0.62873 0.14394 0.83257
 C107 C 0.62834 0.16532 0.84987
 C108 C 0.64728 0.16759 0.86904
 C109 C 0.66685 0.14841 0.87125
 C110 C 0.66724 0.12736 0.85417
 C111 C 0.64803 0.12511 0.83467
 C112 C 0.61335 0.13725 0.81152
 N113 N 0.62251 0.11452 0.80089
 C114 C 0.64406 0.10722 0.81484
 C115 C 0.68874 0.11238 0.86034
 N116 N 0.70122 0.12343 0.88118
 C117 C 0.68813 0.14585 0.88755
 C118 C 0.64238 0.19052 0.88243
 N119 N 0.62074 0.20209 0.87209
 C120 C 0.61223 0.18682 0.85193
 H121 H 0.59696 0.14845 0.80407
 H122 H 0.65663 0.09072 0.81052
 H123 H 0.69512 0.09496 0.84999
 H124 H 0.69396 0.15979 0.90245
 H125 H 0.65383 0.19841 0.89844
 H126 H 0.59594 0.19113 0.83915
 C127 C 1.12917 0.64446 0.83298
 C128 C 1.12874 0.66580 0.85030
 C129 C 1.14747 0.66791 0.86971
 C130 C 1.16688 0.64855 0.87213
 C131 C 1.16724 0.62751 0.85503
 C132 C 1.14825 0.62544 0.83533
 C133 C 1.11400 0.63792 0.81173
 N134 N 1.12318 0.61519 0.80123
 C135 C 1.14437 0.60759 0.81547
 C136 C 1.18857 0.61237 0.86128
 N137 N 1.20102 0.62328 0.88221
 C138 C 1.18805 0.64579 0.88857
 C139 C 1.14255 0.69091 0.88303
 N140 N 1.12111 0.70262 0.87240
 C141 C 1.11278 0.68740 0.85214
 H142 H 1.09775 0.64915 0.80406
 H143 H 1.15668 0.59085 0.81132
 H144 H 1.19492 0.59497 0.85088
 H145 H 1.19393 0.65965 0.90352
 H146 H 1.15385 0.69872 0.89918
 H147 H 1.09671 0.69184 0.83912
 C148 C 1.12907 0.14392 0.33239
 C149 C 1.12873 0.16528 0.34970
 C150 C 1.14761 0.16745 0.36895
 C151 C 1.16707 0.14814 0.37123
 C152 C 1.16739 0.12710 0.35413
 C153 C 1.14824 0.12496 0.33456
 C154 C 1.11372 0.13734 0.31129
 N155 N 1.12278 0.11456 0.30068
 C156 C 1.14423 0.10712 0.31470
 C157 C 1.18878 0.11199 0.36035
 N158 N 1.20127 0.12295 0.38124
 C159 C 1.18829 0.14544 0.38759
 C160 C 1.14275 0.19041 0.38232
 N161 N 1.12120 0.20207 0.37188
 C162 C 1.11273 0.18685 0.35168
 H163 H 1.09745 0.14866 0.30377
 H164 H 1.15671 0.09053 0.31041
 H165 H 1.19510 0.09455 0.35000
 H166 H 1.19416 0.15932 0.40253
 H167 H 1.15417 0.19824 0.39837
 H168 H 1.09654 0.19126 0.33880
 C169 C 0.63000 1.35488 0.66958
 C170 C 0.62970 1.33281 0.65317
 C171 C 0.64778 1.33048 0.63317
 C172 C 0.66649 1.35023 0.62933
 C173 C 0.66687 1.37187 0.64567
 C174 C 0.64849 1.37422 0.66592
 C175 C 0.61557 1.36172 0.69127
 N176 N 0.62464 1.38492 0.70087
 C177 C 0.64505 1.39252 0.68547
 C178 C 0.68784 1.38704 0.63842
 N179 N 0.70004 1.37544 0.61775
 C180 C 0.68726 1.35267 0.61234
 C181 C 0.64326 1.30682 0.62099
 N182 N 0.62304 1.29458 0.63324
 C183 C 0.61455 1.31056 0.65287
 H184 H 0.59997 1.35028 0.69993
 H185 H 0.65733 1.40947 0.68856
 H186 H 0.69424 1.40487 0.64798
 H187 H 0.69314 1.33837 0.59781
 H188 H 0.65405 1.29888 0.60452
 H189 H 0.59847 1.30666 0.66602
 C190 C 0.62777 0.85606 1.16739
 C191 C 0.62663 0.83443 1.15042
 C192 C 0.64585 0.83086 1.13173
 C193 C 0.66651 0.84877 1.12978
 C194 C 0.66765 0.87007 1.14649
 C195 C 0.64810 0.87378 1.16543
 C196 C 0.61268 0.86362 1.18838
 N197 N 0.62309 0.88573 1.19914
 C198 C 0.64503 0.89182 1.18527
 C199 C 0.69024 0.88349 1.14074
 N200 N 0.70297 0.87079 1.12104
 C201 C 0.68840 0.84955 1.11417
 C202 C 0.64046 0.80776 1.11893
 N203 N 0.61834 0.79720 1.12922
 C204 C 0.60986 0.81341 1.14868
 H205 H 0.59580 0.85326 1.19588
 H206 H 0.65862 0.90739 1.18984
 H207 H 0.69719 0.90106 1.15040
 H208 H 0.69309 0.83548 1.09905
 H209 H 0.65208 0.79890 1.10354
 H210 H 0.59326 0.81001 1.16132
 C211 C 1.12850 1.35661 1.16566
 C212 C 1.12739 1.33532 1.14833
 C213 C 1.14564 1.33294 1.12849
 C214 C 1.16523 1.35200 1.12563
 C215 C 1.16627 1.37300 1.14275
 C216 C 1.14778 1.37533 1.16290
 C217 C 1.11408 1.36318 1.18742
 N218 N 1.12394 1.38561 1.19789
 C219 C 1.14476 1.39304 1.18304
 C220 C 1.18783 1.38764 1.13621
 N221 N 1.19979 1.37643 1.11513
 C222 C 1.18623 1.35427 1.10889
 C223 C 1.14030 1.30990 1.11546
 N224 N 1.11910 1.29839 1.12672
 C225 C 1.11129 1.31381 1.14705
 H226 H 1.09792 1.35214 1.19550
 H227 H 1.15746 1.40951 1.18695
 H228 H 1.19472 1.40487 1.14651
 H229 H 1.19163 1.34020 1.09395
 H230 H 1.15124 1.30184 1.09916
 H231 H 1.09558 1.30954 1.16055
 C232 C 1.12785 0.85618 0.66574
 C233 C 1.12667 0.83489 0.64838
 C234 C 1.14495 0.83248 0.62857
 C235 C 1.16464 0.85142 0.62578
 C236 C 1.16577 0.87238 0.64294
 C237 C 1.14724 0.87480 0.66303
 C238 C 1.11344 0.86286 0.68750
 N239 N 1.12342 0.88525 0.69797
 C240 C 1.14430 0.89253 0.68316
 C241 C 1.18744 0.88688 0.63646
 N242 N 1.19936 0.87554 0.61550
 C243 C 1.18566 0.85359 0.60907
 C244 C 1.13965 0.80945 0.61553
 N245 N 1.11844 0.79794 0.62674
 C246 C 1.11056 0.81336 0.64705
 H247 H 1.09718 0.85193 0.69555
 H248 H 1.15712 0.90890 0.68708
 H249 H 1.19444 0.90413 0.64666
 H250 H 1.19099 0.83963 0.59401
 H251 H 1.15066 0.80137 0.59928
 H252 H 1.09483 0.80907 0.66052
 C253 C 0.37203 0.64944 0.66660
 C254 C 0.37100 0.66639 0.64501
 C255 C 0.35047 0.66484 0.62748
 C256 C 0.33055 0.64636 0.63141
 C257 C 0.33157 0.62966 0.65271
 C258 C 0.35250 0.63117 0.67040
 C259 C 0.38902 0.64743 0.68740
 N260 N 0.38039 0.62821 0.70375
 C261 C 0.35795 0.61831 0.69346
 C262 C 0.30936 0.61452 0.65215
 N263 N 0.29459 0.62172 0.63108
 C264 C 0.30771 0.64107 0.61822
 C265 C 0.35382 0.68459 0.60940
 N266 N 0.37604 0.69796 0.61541
 C267 C 0.38645 0.68703 0.63736
 H268 H 0.40590 0.65974 0.69056
 H269 H 0.34616 0.60317 0.70249
 H270 H 0.30473 0.59936 0.66618
 H271 H 0.30092 0.65081 0.60062
 H272 H 0.34035 0.68949 0.59382
 H273 H 0.40359 0.69421 0.64753
 C274 C 0.37233 0.14893 1.16610
 C275 C 0.37127 0.16593 1.14455
 C276 C 0.35067 0.16450 1.12710
 C277 C 0.33071 0.14607 1.13106
 C278 C 0.33176 0.12931 1.15231
 C279 C 0.35276 0.13070 1.16992
 C280 C 0.38935 0.14689 1.18687
 N281 N 0.38071 0.12768 1.20321
 C282 C 0.35824 0.11781 1.19296
 C283 C 0.30948 0.11426 1.15180
 N284 N 0.29465 0.12161 1.13083
 C285 C 0.30779 0.14093 1.11796
 C286 C 0.35398 0.18433 1.10910
 N287 N 0.37625 0.19763 1.11508
 C288 C 0.38672 0.18658 1.13694
 H289 H 0.40623 0.15920 1.19001
 H290 H 0.34643 0.10271 1.20201
 H291 H 0.30484 0.09908 1.16580
 H292 H 0.30097 0.15076 1.10042
 H293 H 0.34044 0.18937 1.09362
 H294 H 0.40390 0.19369 1.14709
 C295 C 0.87326 0.64901 1.16452
 C296 C 0.87176 0.66662 1.14349
 C297 C 0.85188 0.66439 1.12531
 C298 C 0.83314 0.64452 1.12795
 C299 C 0.83462 0.62711 1.14867
 C300 C 0.85482 0.62941 1.16713
 C301 C 0.88985 0.64724 1.18566
 N302 N 0.88207 0.62688 1.20103
 C303 C 0.86050 0.61605 1.18986
 C304 C 0.81342 0.61064 1.14681
 N305 N 0.79924 0.61742 1.12527
 C306 C 0.81106 0.63840 1.11389
 C307 C 0.85470 0.68463 1.10772
 N308 N 0.87599 0.69903 1.11465
 C309 C 0.88633 0.68821 1.13670
 H310 H 0.90581 0.66048 1.18978
 H311 H 0.84945 0.59990 1.19802
 H312 H 0.80838 0.59543 1.16068
 H313 H 0.80378 0.64877 1.09687
 H314 H 0.84158 0.68890 1.09166
 H315 H 0.90298 0.69588 1.14731
 C316 C 0.87271 0.14983 0.66602
 C317 C 0.87134 0.16729 0.64483
 C318 C 0.85168 0.16479 0.62646
 C319 C 0.83304 0.14486 0.62903
 C320 C 0.83435 0.12759 0.64988
 C321 C 0.85435 0.13013 0.66856
 C322 C 0.88919 0.14821 0.68726
 N323 N 0.88156 0.12773 0.70263
 C324 C 0.85999 0.11685 0.69135
 C325 C 0.81328 0.11095 0.64776
 N326 N 0.79938 0.11754 0.62596
 C327 C 0.81123 0.13852 0.61467
 C328 C 0.85462 0.18479 0.60864
 N329 N 0.87579 0.19933 0.61559
 C330 C 0.88593 0.18884 0.63789
 H331 H 0.90498 0.16166 0.69138
 H332 H 0.84894 0.10064 0.69942
 H333 H 0.80811 0.09576 0.66160
 H334 H 0.80416 0.14877 0.59748
 H335 H 0.84167 0.18877 0.59238
 H336 H 0.90248 0.19667 0.64854
 C337 C 1.35271 0.37295 0.66533
 C338 C 1.33376 0.37091 0.64562
 C339 C 1.33435 0.35009 0.62827
 C340 C 1.35394 0.33091 0.63047
 C341 C 1.37263 0.33293 0.64993
 C342 C 1.37198 0.35410 0.66752
 C343 C 1.35638 0.39072 0.68527
 N344 N 1.37764 0.38330 0.69946
 C345 C 1.38707 0.36071 0.68884
 C346 C 1.38870 0.31139 0.64785
 N347 N 1.38053 0.29638 0.62729
 C348 C 1.35897 0.30813 0.61689
 C349 C 1.31319 0.35285 0.61183
 N350 N 1.29998 0.37505 0.61856
 C351 C 1.31229 0.38592 0.63952
 H352 H 1.34389 0.40731 0.68946
 H353 H 1.40349 0.34966 0.69642
 H354 H 1.40464 0.30683 0.66100
 H355 H 1.34754 0.30044 0.60076
 H356 H 1.30748 0.33924 0.59659
 H357 H 1.30577 0.40323 0.64995
 C358 C 1.35268 0.87357 1.16559
 C359 C 1.33351 0.87134 1.14610
 C360 C 1.33402 0.85043 1.12885
 C361 C 1.35370 0.83134 1.13095
 C362 C 1.37258 0.83355 1.15019
 C363 C 1.37206 0.85482 1.16764
 C364 C 1.35649 0.89142 1.18544
 N365 N 1.37804 0.88425 1.19940
 C366 C 1.38737 0.86158 1.18876
 C367 C 1.38872 0.81205 1.14808
 N368 N 1.38037 0.79687 1.12771
 C369 C 1.35867 0.80850 1.11745
 C370 C 1.31274 0.85307 1.11254
 N371 N 1.29955 0.87529 1.11923
 C372 C 1.31197 0.88628 1.14007
 H373 H 1.34380 0.90784 1.18976
 H374 H 1.40382 0.85048 1.19621
 H375 H 1.40481 0.80764 1.16108
 H376 H 1.34711 0.80067 1.10148
 H377 H 1.30699 0.83941 1.09737
 H378 H 1.30552 0.90368 1.15040
 C379 C 0.85297 0.37401 1.16510
 C380 C 0.83375 0.37198 1.14564
 C381 C 0.83272 0.35001 1.12977
 C382 C 0.85084 0.32962 1.13331
 C383 C 0.86976 0.33164 1.15252
 C384 C 0.87091 0.35404 1.16845
 C385 C 0.85767 0.39245 1.18422
 N386 N 0.87835 0.38438 1.19900
 C387 C 0.88628 0.36068 1.18953
 C388 C 0.88421 0.30889 1.15197
 N389 N 0.87433 0.29277 1.13309
 C390 C 0.85414 0.30565 1.12133
 C391 C 0.81137 0.35290 1.11361
 N392 N 0.79965 0.37626 1.11901
 C393 C 0.81305 0.38779 1.13892
 H394 H 0.84598 0.40980 1.18762
 H395 H 0.90161 0.34870 1.19798
 H396 H 0.90095 0.30481 1.16425
 H397 H 0.84266 0.29810 1.10517
 H398 H 0.80435 0.33860 1.09960
 H399 H 0.80764 0.40595 1.14850
 C400 C 0.85367 0.87505 0.66356
 C401 C 0.83454 0.87287 0.64403
 C402 C 0.83494 0.85190 0.62685
 C403 C 0.85453 0.83271 0.62904
 C404 C 0.87341 0.83491 0.64830
 C405 C 0.87294 0.85621 0.66570
 C406 C 0.85738 0.89278 0.68353
 N407 N 0.87867 0.88532 0.69767
 C408 C 0.88808 0.86276 0.68699
 C409 C 0.88939 0.81331 0.64637
 N410 N 0.88090 0.79805 0.62620
 C411 C 0.85938 0.80971 0.61572
 C412 C 0.81353 0.85447 0.61070
 N413 N 0.80037 0.87671 0.61743
 C414 C 0.81295 0.88777 0.63813
 H415 H 0.84483 0.90929 0.68787
 H416 H 0.90441 0.85161 0.69461
 H417 H 0.90553 0.80887 0.65930
 H418 H 0.84790 0.80181 0.59973
 H419 H 0.80759 0.84071 0.59568
 H420 H 0.80649 0.90511 0.64856
 C421 C 0.64673 0.63101 0.66984
 C422 C 0.66730 0.62966 0.65173
 C423 C 0.66770 0.64633 0.63040
 C424 C 0.64758 0.66466 0.62689
 C425 C 0.62737 0.66612 0.64483
 C426 C 0.62692 0.64913 0.66646
 C427 C 0.64196 0.61809 0.69300
 N428 N 0.61960 0.62770 0.70374
 C429 C 0.61040 0.64691 0.68765
 C430 C 0.61175 0.68681 0.63747
 N431 N 0.62178 0.69778 0.61535
 C432 C 0.64391 0.68443 0.60895
 C433 C 0.69032 0.64131 0.61674
 N434 N 0.70386 0.62216 0.62937
 C435 C 0.68970 0.61479 0.65073
 H436 H 0.65414 0.60309 0.70175
 H437 H 0.59348 0.65908 0.69126
 H438 H 0.59481 0.69403 0.64798
 H439 H 0.65718 0.68941 0.59322
 H440 H 0.69672 0.65112 0.59905
 H441 H 0.69503 0.59974 0.66466
 C442 C 0.64660 1.13203 1.17068
 C443 C 0.66734 1.13091 1.15275
 C444 C 0.66791 1.14778 1.13159
 C445 C 0.64774 1.16607 1.12804
 C446 C 0.62737 1.16729 1.14579
 C447 C 0.62678 1.15013 1.16729
 C448 C 0.64160 1.11881 1.19361
 N449 N 0.61902 1.12817 1.20425
 C450 C 0.61003 1.14763 1.18827
 C451 C 0.61159 1.18783 1.13835
 N452 N 0.62161 1.19894 1.11623
 C453 C 0.64403 1.18586 1.11011
 C454 C 0.69057 1.14275 1.11797
 N455 N 0.70395 1.12339 1.13047
 C456 C 0.68967 1.11593 1.15172
 H457 H 0.65381 1.10378 1.20229
 H458 H 0.59313 1.15986 1.19180
 H459 H 0.59452 1.19479 1.14881
 H460 H 0.65747 1.19098 1.09457
 H461 H 0.69705 1.15261 1.10034
 H462 H 0.69481 1.10066 1.16547
 C463 C 0.14855 0.63305 1.16957
 C464 C 0.16635 0.62909 1.14903
 C465 C 0.16565 0.64517 1.12723
 C466 C 0.14705 0.66528 1.12555
 C467 C 0.12940 0.66908 1.14568
 C468 C 0.13022 0.65290 1.16793
 C469 C 0.14520 0.62096 1.19343
 N470 N 0.12553 0.63321 1.20666
 C471 C 0.11605 0.65260 1.19087
 C472 C 0.11462 0.69070 1.13928
 N473 N 0.12267 0.70006 1.11559
 C474 C 0.14280 0.68464 1.10727
 C475 C 0.18611 0.63798 1.11129
 N476 N 0.19902 0.61761 1.12262
 C477 C 0.18724 0.61236 1.14595
 H478 H 0.15632 0.60441 1.20070
 H479 H 0.09980 0.66542 1.19530
 H480 H 0.09955 0.69950 1.15134
 H481 H 0.15440 0.68764 1.08981
 H482 H 0.19178 0.64758 1.09325
 H483 H 0.19400 0.59815 1.16018
 C484 C 0.14878 1.13333 0.67028
 C485 C 0.16675 1.12936 0.64985
 C486 C 0.16611 1.14538 0.62800
 C487 C 0.14746 1.16542 0.62613
 C488 C 0.12967 1.16921 0.64613
 C489 C 0.13040 1.15312 0.66843
 C490 C 0.14525 1.12131 0.69417
 N491 N 0.12542 1.13354 0.70717
 C492 C 0.11603 1.15284 0.69123
 C493 C 0.11482 1.19073 0.63953
 N494 N 0.12298 1.20002 0.61586
 C495 C 0.14323 1.18466 0.60773
 C496 C 0.18661 1.13819 0.61214
 N497 N 0.19950 1.11785 0.62352
 C498 C 0.18767 1.11263 0.64684
 H499 H 0.15636 1.10482 0.70160
 H500 H 0.09969 1.16563 0.69545
 H501 H 0.09962 1.19950 0.65146
 H502 H 0.15493 1.18763 0.59034
 H503 H 0.19228 1.14772 0.59405
 H504 H 0.19436 1.09840 0.66108
 C505 C 1.35226 0.62655 0.33476
 C506 C 1.33274 0.63033 0.35368
 C507 C 1.33401 0.65155 0.37047
 C508 C 1.35481 0.66932 0.36859
 C509 C 1.37400 0.66570 0.34988
 C510 C 1.37270 0.64413 0.33282
 C511 C 1.35515 0.60852 0.31490
 N512 N 1.37713 0.61443 0.30103
 C513 C 1.38772 0.63646 0.31180
 C514 C 1.39091 0.68662 0.35170
 N515 N 1.38260 0.70281 0.37132
 C516 C 1.36034 0.69231 0.38150
 C517 C 1.31209 0.65085 0.38604
 N518 N 1.29739 0.62973 0.37905
 C519 C 1.31008 0.61703 0.35934
 H520 H 1.34142 0.59307 0.31033
 H521 H 1.40468 0.64669 0.30429
 H522 H 1.40742 0.68994 0.33893
 H523 H 1.34868 0.70114 0.39689
 H524 H 1.30744 0.66489 0.40121
 H525 H 1.30305 0.59954 0.34959
 C526 C 1.35184 1.12659 0.83558
 C527 C 1.33286 1.12984 0.85515
 C528 C 1.33357 1.15159 0.87128
 C529 C 1.35317 1.17049 0.86804
 C530 C 1.37177 1.16741 0.84867
 C531 C 1.37117 1.14524 0.83238
 C532 C 1.35491 1.10832 0.81595
 N533 N 1.37577 1.11532 0.80095
 C534 C 1.38566 1.13800 0.81086
 C535 C 1.38738 1.18937 0.84908
 N536 N 1.37855 1.20595 0.86814
 C537 C 1.35778 1.19422 0.87998
 C538 C 1.31197 1.15054 0.88724
 N539 N 1.29796 1.12868 0.88115
 C540 C 1.31078 1.11588 0.86159
 H541 H 1.34206 1.09191 0.81234
 H542 H 1.40173 1.14890 0.80240
 H543 H 1.40391 1.19265 0.83632
 H544 H 1.34652 1.20260 0.89591
 H545 H 1.30681 1.16517 0.90165
 H546 H 1.30403 1.09807 0.85221
 C547 C 0.85146 0.62638 0.83533
 C548 C 0.83301 0.62869 0.85552
 C549 C 0.83417 0.64960 0.87274
 C550 C 0.85380 0.66860 0.86992
 C551 C 0.87200 0.66629 0.85001
 C552 C 0.87079 0.64505 0.83258
 C553 C 0.85447 0.60860 0.81526
 N554 N 0.87535 0.61590 0.80044
 C555 C 0.88524 0.63835 0.81085
 C556 C 0.88818 0.68776 0.85146
 N557 N 0.88044 0.70303 0.87194
 C558 C 0.85922 0.69151 0.88312
 C559 C 0.81334 0.64722 0.88966
 N560 N 0.79973 0.62518 0.88330
 C561 C 0.81151 0.61401 0.86217
 H562 H 0.84176 0.59212 0.81145
 H563 H 0.90153 0.64925 0.80284
 H564 H 0.90390 0.69211 0.83800
 H565 H 0.84831 0.69946 0.89950
 H566 H 0.80810 0.66104 0.90487
 H567 H 0.80457 0.59671 0.85202
 C568 C 0.85266 1.12504 0.33665
 C569 C 0.83402 1.12745 0.35664
 C570 C 0.83505 1.14841 0.37382
 C571 C 0.85475 1.16737 0.37113
 C572 C 0.87313 1.16495 0.35140
 C573 C 0.87205 1.14367 0.33404
 C574 C 0.85571 1.10732 0.31653
 N575 N 0.87667 1.11463 0.30184
 C576 C 0.88658 1.13701 0.31237
 C577 C 0.88923 1.18646 0.35278
 N578 N 0.88130 1.20189 0.37305
 C579 C 0.86002 1.19041 0.38418
 C580 C 0.81396 1.14619 0.39043
 N581 N 0.80033 1.12420 0.38394
 C582 C 0.81235 1.11290 0.36302
 H583 H 0.84293 1.09094 0.31252
 H584 H 0.90286 1.14797 0.30440
 H585 H 0.90501 1.19074 0.33936
 H586 H 0.84895 1.19851 0.40037
 H587 H 0.80854 1.16010 0.40550
 H588 H 0.80544 1.09564 0.35278
 C589 C 0.64516 0.37018 0.33143
 C590 C 0.66521 0.37267 0.35005
 C591 C 0.66655 0.35541 0.37089
 C592 C 0.64788 0.33551 0.37351
 C593 C 0.62816 0.33306 0.35519
 C594 C 0.62677 0.35053 0.33401
 C595 C 0.63951 0.38348 0.30866
 N596 N 0.61790 0.37265 0.29743
 C597 C 0.61025 0.35218 0.31281
 C598 C 0.61353 0.31155 0.36215
 N599 N 0.62369 0.30103 0.38443
 C600 C 0.64492 0.31551 0.39134
 C601 C 0.68843 0.36170 0.38517
 N602 N 0.70029 0.38265 0.37381
 C603 C 0.68632 0.38926 0.35208
 H604 H 0.65058 0.39966 0.30056
 H605 H 0.59443 0.33875 0.30871
 H606 H 0.59694 0.30377 0.35154
 H607 H 0.65789 0.31148 0.40757
 H608 H 0.69555 0.35145 0.40233
 H609 H 0.69147 0.40443 0.33819
 C610 C 0.64525 0.87068 0.83234
 C611 C 0.66531 0.87316 0.85095
 C612 C 0.66661 0.85594 0.87183
 C613 C 0.64788 0.83609 0.87451
 C614 C 0.62815 0.83365 0.85619
 C615 C 0.62681 0.85107 0.83498
 C616 C 0.63968 0.88385 0.80947
 N617 N 0.61819 0.87289 0.79824
 C618 C 0.61035 0.85264 0.81372
 C619 C 0.61357 0.81211 0.86308
 N620 N 0.62374 0.80153 0.88532
 C621 C 0.64494 0.81604 0.89228
 C622 C 0.68856 0.86217 0.88605
 N623 N 0.70049 0.88304 0.87461
 C624 C 0.68651 0.88965 0.85287
 H625 H 0.65071 0.89999 0.80127
 H626 H 0.59443 0.83935 0.80964
 H627 H 0.59703 0.80429 0.85240
 H628 H 0.65793 0.81197 0.90849
 H629 H 0.69566 0.85194 0.90322
 H630 H 0.69172 0.90473 0.83892
 C631 C 0.14780 0.36746 0.82820
 C632 C 0.16772 0.37015 0.84687
 C633 C 0.16810 0.35420 0.86876
 C634 C 0.14846 0.33537 0.87237
 C635 C 0.12884 0.33272 0.85394
 C636 C 0.12857 0.34881 0.83166
 C637 C 0.14331 0.37934 0.80443
 N638 N 0.12200 0.36813 0.79304
 C639 C 0.11272 0.34958 0.80989
 C640 C 0.11372 0.31177 0.86144
 N641 N 0.12349 0.30168 0.88408
 C642 C 0.14493 0.31597 0.89078
 C643 C 0.19043 0.36010 0.88255
 N644 N 0.20376 0.37912 0.86950
 C645 C 0.18979 0.38546 0.84768
 H646 H 0.15499 0.39478 0.79578
 H647 H 0.09569 0.33743 0.80694
 H648 H 0.09734 0.30373 0.85068
 H649 H 0.15788 0.31191 0.90703
 H650 H 0.19691 0.35082 0.90050
 H651 H 0.19518 0.39979 0.83308
 C652 C 0.14662 0.86837 0.32896
 C653 C 0.16756 0.86983 0.34663
 C654 C 0.16873 0.85292 0.36774
 C655 C 0.14898 0.83426 0.37150
 C656 C 0.12843 0.83271 0.35399
 C657 C 0.12722 0.84991 0.33256
 C658 C 0.14107 0.88151 0.30610
 N659 N 0.11858 0.87171 0.29571
 C660 C 0.11017 0.85210 0.31181
 C661 C 0.11312 0.81192 0.36158
 N662 N 0.12367 0.80095 0.38346
 C663 C 0.14582 0.81441 0.38947
 C664 C 0.19152 0.85823 0.38099
 N665 N 0.20438 0.87783 0.36836
 C666 C 0.18967 0.88512 0.34735
 H667 H 0.15284 0.89679 0.29730
 H668 H 0.09347 0.83958 0.30853
 H669 H 0.09595 0.80473 0.35148
 H670 H 0.15936 0.80955 0.40500
 H671 H 0.19850 0.84833 0.39842
 H672 H 0.19440 0.90036 0.33343
 O673 O 0.97579 0.91415 0.86421
 O674 O 0.97592 0.88559 0.83172
 C675 C 0.96698 0.90633 0.84228
 C676 C 0.94573 0.92119 0.82925
 C677 C 0.93667 0.91363 0.80441
 H678 H 0.94557 0.89700 0.79464
 O679 O 1.02654 1.10294 0.87518
 O680 O 1.02672 1.13545 0.84666
 C681 C 1.03564 1.11358 0.85458
 C682 C 1.05726 1.10067 0.84015
 C683 C 1.06607 1.11073 0.81609
 H684 H 1.05561 1.12700 0.80753
 O685 O 0.87042 0.98146 0.90281
 O686 O 0.84016 0.98336 0.87208
 C687 C 0.84921 0.97315 0.89291
 C688 C 0.83523 0.95109 0.90554
 C689 C 0.81047 0.94331 0.89657
 H690 H 0.80202 0.95370 0.88023
 O691 O 1.13092 1.03210 0.90768
 O692 O 1.16172 1.03406 0.87750
 C693 C 1.15225 1.04164 0.89927
 C694 C 1.16569 1.06220 0.91475
 C695 C 1.18999 1.07223 0.90675
 H696 H 1.19951 1.06412 0.88958
 O697 O 0.90563 0.87218 0.96532
 O698 O 0.87539 0.84148 0.96307
 C699 C 0.89679 0.85127 0.95511
 C700 C 0.91143 0.83848 0.93356
 C701 C 0.90422 0.81355 0.92439
 H702 H 0.88785 0.80351 0.93336
 O703 O 1.09439 1.13192 0.98322
 O704 O 1.12469 1.16258 0.98525
 C705 C 1.10355 1.15379 0.97559
 C706 C 1.08974 1.16882 0.95492
 C707 C 1.09883 1.19364 0.94713
 H708 H 1.11604 1.20146 0.95650
 O709 O 0.90655 1.03450 0.87029
 O710 O 0.87657 1.03630 0.83929
 C711 C 0.89777 1.04454 0.84927
 C712 C 0.91224 1.06623 0.83659
 C713 C 0.90503 1.07536 0.81166
 H714 H 0.88880 1.06626 0.80153
 O715 O 1.09527 0.98336 0.86857
 O716 O 1.12594 0.98502 0.83824
 C717 C 1.10459 0.97561 0.84682
 C718 C 1.09073 0.95502 0.83176
 C719 C 1.09977 0.94722 0.80692
 H720 H 1.11696 0.95659 0.79906
 O721 O 1.02652 0.87576 0.89787
 O722 O 1.02670 0.84700 0.86554
 C723 C 1.03538 0.85489 0.88751
 C724 C 1.05621 0.83994 0.90110
 C725 C 1.06386 0.81499 0.89220
 H726 H 1.05441 0.80703 0.87504
 O727 O 0.97499 1.13609 0.91306
 O728 O 0.97509 1.16865 0.88462
 C729 C 0.96605 1.15797 0.90523
 C730 C 0.94457 1.17084 0.91991
 C731 C 0.93529 1.19558 0.91224
 H732 H 0.94421 1.20539 0.89567
 O733 O 0.86957 1.09666 0.97950
 O734 O 0.83898 1.12711 0.98122
 C735 C 0.84830 1.10635 0.97104
 C736 C 0.83465 1.09358 0.94881
 C737 C 0.80977 1.10213 0.94086
 H738 H 0.80086 1.11830 0.95122
 O739 O 1.13059 0.90754 0.96914
 O740 O 1.16112 0.87705 0.96728
 C741 C 1.15192 0.89895 0.95971
 C742 C 1.16583 0.91448 0.93947
 C743 C 1.19075 0.90696 0.93063
 H744 H 1.19999 0.88973 0.93890
 O745 O 0.97559 1.10280 0.87462
 O746 O 0.97577 1.13519 0.84598
 C747 C 0.96694 1.11324 0.85373
 C748 C 0.94612 1.09981 0.83868
 C749 C 0.93865 1.10873 0.81369
 H750 H 0.94833 1.12576 0.80573
 O751 O 1.02677 0.91404 0.86443
 O752 O 1.02699 0.88549 0.83193
 C753 C 1.03581 0.90621 0.84258
 C754 C 1.05714 0.92108 0.82976
 C755 C 1.06641 0.91362 0.80495
 H756 H 1.05756 0.89710 0.79499
 O757 O 1.13081 0.98105 0.90457
 O758 O 1.16169 0.98291 0.87446
 C759 C 1.15222 0.97268 0.89510
 C760 C 1.16596 0.95056 0.90797
 C761 C 1.19083 0.94270 0.89935
 H762 H 1.19956 0.95299 0.88308
 O763 O 0.87047 1.03251 0.90597
 O764 O 0.84026 1.03445 0.87520
 C765 C 0.84924 1.04198 0.89719
 C766 C 0.83517 1.06220 0.91261
 C767 C 0.81029 1.07098 0.90496
 H768 H 0.80123 1.06270 0.88764
 O769 O 0.90563 1.13219 0.98187
 O770 O 0.87524 1.16285 0.98341
 C771 C 0.89655 1.15404 0.97409
 C772 C 0.91064 1.16898 0.95356
 C773 C 0.90163 1.19376 0.94556
 H774 H 0.88429 1.20168 0.95467
 O775 O 1.09495 0.87152 0.96691
 O776 O 1.12524 0.84076 0.96521
 C777 C 1.10400 0.85059 0.95686
 C778 C 1.08977 0.83788 0.93502
 C779 C 1.09716 0.81297 0.92591
 H780 H 1.11337 0.80288 0.93514
 O781 O 1.09561 1.03445 0.87139
 O782 O 1.12622 1.03622 0.84100
 C783 C 1.10493 1.04466 0.85068
 C784 C 1.09114 1.06698 0.83822
 C785 C 1.09975 1.07734 0.81421
 H786 H 1.11599 1.06814 0.80412
 O787 O 0.90681 0.98346 0.86766
 O788 O 0.87672 0.98520 0.83675
 C789 C 0.89789 0.97572 0.84575
 C790 C 0.91200 0.95509 0.83090
 C791 C 0.90322 0.94721 0.80602
 H792 H 0.88602 0.95647 0.79797
 O793 O 1.02599 1.13617 0.91357
 O794 O 1.02615 1.16881 0.88522
 C795 C 1.03492 1.15810 0.90594
 C796 C 1.05616 1.17092 0.92096
 C797 C 1.06550 1.19568 0.91350
 H798 H 1.05671 1.20562 0.89693
 O799 O 0.97561 0.87588 0.89758
 O800 O 0.97580 0.84711 0.86526
 C801 C 0.96683 0.85506 0.88711
 C802 C 0.94573 0.84025 0.90036
 C803 C 0.93824 0.81529 0.89140
 H804 H 0.94811 0.80723 0.87452
 O805 O 1.13007 1.09589 0.98161
 O806 O 1.16047 1.12643 0.98377
 C807 C 1.15138 1.10566 0.97346
 C808 C 1.16527 1.09326 0.95119
 C809 C 1.18967 1.10280 0.94310
 H810 H 1.19881 1.11779 0.95482
 O811 O 0.86972 0.90811 0.96715
 O812 O 0.83925 0.87764 0.96481
 C813 C 0.84852 0.89955 0.95744
 C814 C 0.83488 0.91509 0.93706
 C815 C 0.81008 0.90764 0.92793
 H816 H 0.80063 0.89054 0.93620
 Cu817 Cu 1.00117 0.89781 0.88426
 Cu818 Cu 1.00138 0.86347 0.84531
 Cu819 Cu 1.00073 1.11624 0.89694
 Cu820 Cu 1.00092 1.15533 0.86279
 Cu821 Cu 0.89156 1.00785 0.88978
 Cu822 Cu 0.85540 1.01005 0.85273
 Cu823 Cu 1.11008 1.00759 0.89107
 Cu824 Cu 1.14698 1.00971 0.85475
 C825 C 0.93354 0.94224 0.84216
 H826 H 0.94022 0.94800 0.86147
 C827 C 0.91584 0.92690 0.79219
 C828 C 1.06986 1.07877 0.85098
 H829 H 1.06337 1.07115 0.86970
 C830 C 1.08780 1.09966 0.80313
 C831 C 0.84709 0.93708 0.92600
 H832 H 0.86632 0.94281 0.93276
 C833 C 0.79728 0.92196 0.90807
 C834 C 1.15353 1.07286 0.93702
 H835 H 1.13454 1.06567 0.94301
 C836 C 1.20199 1.09303 0.92039
 C837 C 0.93246 0.85147 0.92167
 H838 H 0.93799 0.87081 0.92851
 C839 C 0.91791 0.80132 0.90376
 C840 C 1.06815 1.15783 0.94197
 H841 H 1.06128 1.13856 0.94762
 C842 C 1.08649 1.20761 0.92676
 C843 C 0.93305 1.07832 0.84974
 H844 H 0.93856 1.07150 0.86908
 C845 C 0.91856 1.09614 0.79955
 C846 C 1.06916 0.94209 0.84281
 H847 H 1.06231 0.94776 0.86210
 C848 C 1.08735 0.92690 0.79295
 C849 C 1.06902 0.85101 0.92274
 H850 H 1.06336 0.87033 0.92955
 C851 C 1.08384 0.80084 0.90500
 C852 C 0.93237 1.15788 0.94088
 H853 H 0.93921 1.13863 0.94670
 C854 C 0.91422 1.20764 0.92529
 C855 C 0.84697 1.07335 0.93480
 H856 H 0.86627 1.06686 0.94069
 C857 C 0.79694 1.09042 0.91937
 C858 C 1.15381 0.93657 0.92828
 H859 H 1.13450 0.94238 0.93481
 C860 C 1.20388 0.92136 0.91106
 O861 O 1.02434 0.89820 1.12430
 O862 O 1.02413 0.86588 1.15302
 C863 C 1.03302 0.88778 1.14518
 C864 C 1.05391 0.90115 1.16019
 C865 C 1.06132 0.89214 1.18514
 H866 H 1.05158 0.87513 1.19306
 O867 O 0.97371 1.08642 1.13552
 O868 O 0.97350 1.11482 1.16815
 C869 C 0.96470 1.09414 1.15741
 C870 C 0.94333 1.07925 1.17013
 C871 C 0.93409 1.08657 1.19499
 H872 H 0.94303 1.10297 1.20507
 O873 O 0.86897 1.01995 1.09483
 O874 O 0.83834 1.01812 1.12519
 C875 C 0.84774 1.02844 1.10457
 C876 C 0.83438 1.05115 1.09235
 C877 C 0.81052 1.06029 1.10242
 H878 H 0.80115 1.04916 1.11777
 O879 O 1.13013 0.96869 1.09343
 O880 O 1.16034 0.96664 1.12419
 C881 C 1.15136 0.95919 1.10218
 C882 C 1.16537 0.93893 1.08674
 C883 C 1.19017 0.92994 1.09443
 H884 H 1.19931 0.93818 1.11172
 O885 O 1.09453 0.86873 1.01792
 O886 O 1.12492 0.83807 1.01632
 C887 C 1.10360 0.84686 1.02567
 C888 C 1.08941 0.83186 1.04613
 C889 C 1.09829 0.80701 1.05412
 H890 H 1.11565 0.79899 1.04510
 O891 O 0.90506 1.12934 1.03297
 O892 O 0.87479 1.16011 1.03460
 C893 C 0.89590 1.15015 1.04316
 C894 C 0.90958 1.16237 1.06567
 C895 C 0.90094 1.18634 1.07614
 H896 H 0.88485 1.19657 1.06686
 O897 O 0.90443 0.96665 1.12781
 O898 O 0.87405 0.96491 1.15845
 C899 C 0.89538 0.95663 1.14873
 C900 C 0.90972 0.93493 1.16157
 C901 C 0.90246 0.92601 1.18657
 H902 H 0.88618 0.93522 1.19658
 O903 O 1.09369 1.01747 1.13201
 O904 O 1.12374 1.01552 1.16294
 C905 C 1.10261 1.02509 1.15397
 C906 C 1.08857 1.04573 1.16888
 C907 C 1.09750 1.05364 1.19370
 H908 H 1.11473 1.04437 1.20170
 O909 O 0.97364 0.86477 1.08575
 O910 O 0.97335 0.83229 1.11427
 C911 C 0.96460 0.84293 1.09351
 C912 C 0.94326 0.83016 1.07858
 C913 C 0.93382 0.80543 1.08606
 H914 H 0.94261 0.79542 1.10259
 O915 O 1.02444 1.12502 1.10234
 O916 O 1.02420 1.15375 1.13468
 C917 C 1.03310 1.14590 1.11277
 C918 C 1.05399 1.16086 1.09937
 C919 C 1.06144 1.18586 1.10824
 H920 H 1.05169 1.19389 1.12520
 O921 O 0.86924 0.90485 1.01821
 O922 O 0.83881 0.87435 1.01595
 C923 C 0.84797 0.89501 1.02641
 C924 C 0.83427 0.90719 1.04894
 C925 C 0.81023 0.89723 1.05764
 H926 H 0.80106 0.88194 1.04629
 O927 O 1.12988 1.09340 1.03274
 O928 O 1.16018 1.12404 1.03496
 C929 C 1.15095 1.10220 1.04254
 C930 C 1.16439 1.08716 1.06344
 C931 C 1.18831 1.09581 1.07381
 H932 H 1.19761 1.11299 1.06555
 O933 O 1.02471 1.08669 1.13574
 O934 O 1.02458 1.11521 1.16826
 C935 C 1.03358 1.09452 1.15765
 C936 C 1.05492 1.07970 1.17062
 C937 C 1.06414 1.08731 1.19542
 H938 H 1.05533 1.10400 1.20517
 O939 O 0.97345 0.89811 1.12415
 O940 O 0.97329 0.86579 1.15288
 C941 C 0.96454 0.88773 1.14496
 C942 C 0.94358 0.90125 1.15979
 C943 C 0.93609 0.89257 1.18484
 H944 H 0.94573 0.87558 1.19298
 O945 O 1.12982 1.01978 1.09668
 O946 O 1.16001 1.01782 1.12748
 C947 C 1.15089 1.02822 1.10676
 C948 C 1.16439 1.05092 1.09473
 C949 C 1.18834 1.05981 1.10478
 H950 H 1.19762 1.04855 1.12010
 O951 O 0.86877 0.96880 1.09180
 O952 O 0.83821 0.96684 1.12223
 C953 C 0.84754 0.95921 1.10042
 C954 C 0.83409 0.93846 1.08521
 C955 C 0.81010 0.92814 1.09373
 H956 H 0.80076 0.93630 1.11097
 O957 O 1.09371 1.12898 1.03421
 O958 O 1.12385 1.15981 1.03622
 C959 C 1.10252 1.14997 1.04428
 C960 C 1.08795 1.16277 1.06585
 C961 C 1.09513 1.18772 1.07490
 H962 H 1.11137 1.19783 1.06576
 O963 O 0.90518 0.86924 1.01632
 O964 O 0.87487 0.83860 1.01410
 C965 C 0.89599 0.84738 1.02386
 C966 C 0.90972 0.83233 1.04458
 C967 C 0.90048 0.80762 1.05243
 H968 H 0.88322 0.79991 1.04306
 O969 O 1.09375 0.96645 1.12883
 O970 O 1.12372 0.96445 1.15983
 C971 C 1.10250 0.95629 1.14980
 C972 C 1.08795 0.93457 1.16237
 C973 C 1.09511 0.92531 1.18727
 H974 H 1.11141 0.93427 1.19742
 O975 O 0.90461 1.01761 1.13072
 O976 O 0.87411 1.01587 1.16123
 C977 C 0.89543 1.02526 1.15258
 C978 C 0.90945 1.04564 1.16777
 C979 C 0.90047 1.05328 1.19267
 H980 H 0.88318 1.04401 1.20044
 O981 O 0.97351 1.12474 1.10223
 O982 O 0.97325 1.15330 1.13473
 C983 C 0.96444 1.14541 1.11281
 C984 C 0.94300 1.16000 1.09976
 C985 C 0.93411 1.18402 1.10994
 H986 H 0.94435 1.19239 1.12644
 O987 O 1.02471 0.86471 1.08614
 O988 O 1.02451 0.83221 1.11465
 C989 C 1.03363 0.84285 1.09406
 C990 C 1.05520 0.82998 1.07951
 C991 C 1.06441 0.80523 1.08724
 H992 H 1.05541 0.79551 1.10381
 O993 O 1.13052 0.90430 1.02018
 O994 O 1.16111 0.87385 1.01840
 C995 C 1.15181 0.89461 1.02858
 C996 C 1.16557 0.90739 1.05071
 C997 C 1.19032 0.89859 1.05872
 H998 H 1.19899 0.88222 1.04849
 O999 O 0.86937 1.09353 1.03060
 O1000 O 0.83894 1.12414 1.03242
 C1001 C 0.84815 1.10231 1.04014
 C1002 C 0.83458 1.08732 1.06098
 C1003 C 0.81077 1.09625 1.07143
 H1004 H 0.80160 1.11353 1.06318
 Cu1005 Cu 0.99903 0.88467 1.10221
 Cu1006 Cu 0.99880 0.84572 1.13651
 Cu1007 Cu 0.99915 1.10287 1.11571
 Cu1008 Cu 0.99889 1.13710 1.15475
 Cu1009 Cu 0.89046 0.89168 0.99191
 Cu1010 Cu 0.85401 0.85497 0.98920
 Cu1011 Cu 1.10962 0.89108 0.99369
 Cu1012 Cu 1.14617 0.85436 0.99160
 Cu1013 Cu 0.89043 1.10987 1.00605
 Cu1014 Cu 0.85393 1.14664 1.00804
 Cu1015 Cu 1.10900 1.10946 1.00777
 Cu1016 Cu 1.14539 1.14626 1.01026
 Cu1017 Cu 0.88971 0.99339 1.10820
 Cu1018 Cu 0.85305 0.99124 1.14479
 Cu1019 Cu 1.10886 0.99322 1.10963
 Cu1020 Cu 1.14500 0.99085 1.14669
 C1021 C 1.06708 0.92260 1.14917
 H1022 H 1.06160 0.92948 1.12984
 C1023 C 1.08146 0.90457 1.19931
 C1024 C 0.93114 1.05847 1.15686
 H1025 H 0.93795 1.05291 1.13752
 C1026 C 0.91304 1.07336 1.20683
 C1027 C 0.84621 1.06474 1.07158
 H1028 H 0.86483 1.05802 1.06401
 C1029 C 0.79890 1.08341 1.09278
 C1030 C 1.15346 0.92782 1.06459
 H1031 H 1.13424 0.93448 1.05866
 C1032 C 1.20328 0.91025 1.08013
 C1033 C 1.06758 0.84296 1.05866
 H1034 H 1.06080 0.86222 1.05282
 C1035 C 1.08546 0.79310 1.07423
 C1036 C 0.93066 1.14941 1.07759
 H1037 H 0.93718 1.13071 1.06988
 C1038 C 0.91259 1.19716 1.09872
 C1039 C 0.93055 0.92268 1.14855
 H1040 H 0.93613 0.92935 1.12917
 C1041 C 0.91606 0.90539 1.19891
 C1042 C 1.06700 1.05860 1.15771
 H1043 H 1.06022 1.05281 1.13844
 C1044 C 1.08498 1.07399 1.20758
 C1045 C 0.93133 0.84326 1.05753
 H1046 H 0.93830 0.86249 1.05183
 C1047 C 0.91275 0.79361 1.07282
 C1048 C 1.06711 1.14969 1.07794
 H1049 H 1.06163 1.13031 1.07118
 C1050 C 1.08159 1.19991 1.09564
 C1051 C 0.84596 0.92787 1.06276
 H1052 H 0.86470 0.93537 1.05635
 C1053 C 0.79822 0.90698 1.08054
 C1054 C 1.15263 1.06468 1.07403
 H1055 H 1.13395 1.05815 1.06647
 C1056 C 1.20019 1.08277 1.09506
 O1057 O 0.97599 0.41335 0.36386
 O1058 O 0.97626 0.38473 0.33143
 C1059 C 0.96724 0.40546 0.34193
 C1060 C 0.94599 0.42022 0.32882
 C1061 C 0.93696 0.41253 0.30400
 H1062 H 0.94586 0.39580 0.29440
 O1063 O 1.02730 0.60210 0.37472
 O1064 O 1.02741 0.63456 0.34615
 C1065 C 1.03636 0.61272 0.35411
 C1066 C 1.05799 0.59986 0.33969
 C1067 C 1.06676 0.60992 0.31562
 H1068 H 1.05623 0.62612 0.30703
 O1069 O 0.87052 0.48050 0.40222
 O1070 O 0.84033 0.48257 0.37143
 C1071 C 0.84928 0.47231 0.39229
 C1072 C 0.83515 0.45036 0.40492
 C1073 C 0.81037 0.44269 0.39594
 H1074 H 0.80197 0.45310 0.37959
 O1075 O 1.13148 0.53180 0.40762
 O1076 O 1.16224 0.53361 0.37737
 C1077 C 1.15277 0.54134 0.39910
 C1078 C 1.16616 0.56212 0.41434
 C1079 C 1.19016 0.57247 0.40591
 H1080 H 1.19956 0.56432 0.38870
 O1081 O 0.90551 0.37182 0.46498
 O1082 O 0.87534 0.34104 0.46277
 C1083 C 0.89674 0.35086 0.45482
 C1084 C 0.91149 0.33802 0.43338
 C1085 C 0.90442 0.31300 0.42439
 H1086 H 0.88809 0.30294 0.43341
 O1087 O 1.09486 0.63137 0.48297
 O1088 O 1.12504 0.66214 0.48509
 C1089 C 1.10395 0.65327 0.47538
 C1090 C 1.09015 0.66822 0.45464
 C1091 C 1.09924 0.69299 0.44674
 H1092 H 1.11642 0.70088 0.45613
 O1093 O 0.90705 0.53333 0.36987
 O1094 O 0.87715 0.53531 0.33879
 C1095 C 0.89839 0.54341 0.34882
 C1096 C 0.91306 0.56496 0.33616
 C1097 C 0.90605 0.57402 0.31114
 H1098 H 0.88987 0.56492 0.30092
 O1099 O 1.09576 0.48282 0.36883
 O1100 O 1.12643 0.48433 0.33849
 C1101 C 1.10506 0.47499 0.34711
 C1102 C 1.09116 0.45442 0.33205
 C1103 C 1.10016 0.44674 0.30718
 H1104 H 1.11738 0.45611 0.29936
 O1105 O 1.02672 0.37509 0.39772
 O1106 O 1.02699 0.34632 0.36542
 C1107 C 1.03563 0.35424 0.38738
 C1108 C 1.05649 0.33934 0.40095
 C1109 C 1.06413 0.31438 0.39205
 H1110 H 1.05464 0.30640 0.37492
 O1111 O 0.97565 0.63517 0.41247
 O1112 O 0.97573 0.66766 0.38395
 C1113 C 0.96668 0.65701 0.40455
 C1114 C 0.94515 0.66985 0.41912
 C1115 C 0.93594 0.69461 0.41141
 H1116 H 0.94494 0.70442 0.39489
 O1117 O 0.87014 0.59569 0.47897
 O1118 O 0.83960 0.62620 0.48066
 C1119 C 0.84888 0.60538 0.47054
 C1120 C 0.83516 0.59256 0.44840
 C1121 C 0.81024 0.60105 0.44058
 H1122 H 0.80136 0.61721 0.45098
 O1123 O 1.13098 0.40705 0.46896
 O1124 O 1.16152 0.37655 0.46715
 C1125 C 1.15236 0.39848 0.45961
 C1126 C 1.16638 0.41408 0.43952
 C1127 C 1.19138 0.40665 0.43086
 H1128 H 1.20059 0.38941 0.43915
 O1129 O 0.97638 0.60157 0.37434
 O1130 O 0.97653 0.63391 0.34563
 C1131 C 0.96775 0.61195 0.35342
 C1132 C 0.94700 0.59845 0.33834
 C1133 C 0.93971 0.60732 0.31330
 H1134 H 0.94947 0.62430 0.30538
 O1135 O 1.02700 0.41349 0.36444
 O1136 O 1.02734 0.38492 0.33196
 C1137 C 1.03612 0.40567 0.34263
 C1138 C 1.05749 0.42056 0.32988
 C1139 C 1.06675 0.41322 0.30502
 H1140 H 1.05787 0.39676 0.29497
 O1141 O 1.13154 0.48072 0.40463
 O1142 O 1.16241 0.48243 0.37450
 C1143 C 1.15294 0.47231 0.39519
 C1144 C 1.16666 0.45024 0.40814
 C1145 C 1.19161 0.44247 0.39969
 H1146 H 1.20043 0.45282 0.38350
 O1147 O 0.87084 0.53149 0.40543
 O1148 O 0.84068 0.53363 0.37462
 C1149 C 0.84965 0.54106 0.39665
 C1150 C 0.83561 0.56124 0.41215
 C1151 C 0.81066 0.56995 0.40464
 H1152 H 0.80154 0.56168 0.38735
 O1153 O 0.90606 0.63132 0.48101
 O1154 O 0.87571 0.66202 0.48245
 C1155 C 0.89699 0.65313 0.47314
 C1156 C 0.91109 0.66801 0.45260
 C1157 C 0.90214 0.69280 0.44458
 H1158 H 0.88477 0.70074 0.45362
 O1159 O 1.09535 0.37102 0.46659
 O1160 O 1.12563 0.34024 0.46494
 C1161 C 1.10440 0.35008 0.45656
 C1162 C 1.09016 0.33735 0.43474
 C1163 C 1.09755 0.31243 0.42564
 H1164 H 1.11379 0.30237 0.43482
 O1165 O 1.09640 0.53391 0.37111
 O1166 O 1.12699 0.53552 0.34069
 C1167 C 1.10572 0.54400 0.35034
 C1168 C 1.09193 0.56627 0.33780
 C1169 C 1.10055 0.57665 0.31379
 H1170 H 1.11681 0.56748 0.30373
 O1171 O 0.90693 0.48234 0.36708
 O1172 O 0.87693 0.48423 0.33610
 C1173 C 0.89804 0.47466 0.34513
 C1174 C 0.91216 0.45402 0.33032
 C1175 C 0.90344 0.44605 0.30543
 H1176 H 0.88624 0.45523 0.29726
 O1177 O 1.02663 0.63523 0.41322
 O1178 O 1.02675 0.66780 0.38478
 C1179 C 1.03551 0.65717 0.40554
 C1180 C 1.05667 0.67009 0.42056
 C1181 C 1.06600 0.69482 0.41300
 H1182 H 1.05725 0.70467 0.39636
 O1183 O 0.97578 0.37531 0.39749
 O1184 O 0.97608 0.34649 0.36523
 C1185 C 0.96704 0.35447 0.38704
 C1186 C 0.94590 0.33969 0.40028
 C1187 C 0.93854 0.31464 0.39149
 H1188 H 0.94851 0.30649 0.37471
 O1189 O 1.13081 0.59570 0.48128
 O1190 O 1.16112 0.62633 0.48350
 C1191 C 1.15206 0.60560 0.47308
 C1192 C 1.16583 0.59340 0.45061
 C1193 C 1.18989 0.60337 0.44200
 H1194 H 1.19900 0.61866 0.45338
 O1195 O 0.86939 0.40749 0.46665
 O1196 O 0.83896 0.37699 0.46430
 C1197 C 0.84822 0.39889 0.45691
 C1198 C 0.83462 0.41441 0.43649
 C1199 C 0.80979 0.40706 0.42735
 H1200 H 0.80028 0.39000 0.43564
 Cu1201 Cu 1.00136 0.39718 0.38412
 Cu1202 Cu 1.00171 0.36278 0.34521
 Cu1203 Cu 1.00146 0.61526 0.39654
 Cu1204 Cu 1.00159 0.65428 0.36229
 Cu1205 Cu 0.89183 0.50676 0.38925
 Cu1206 Cu 0.85575 0.50918 0.35212
 Cu1207 Cu 1.11073 0.50718 0.39107
 Cu1208 Cu 1.14761 0.50909 0.35472
 C1209 C 0.93372 0.44126 0.34164
 H1210 H 0.94036 0.44708 0.36095
 C1211 C 0.91617 0.42575 0.29167
 C1212 C 1.07062 0.57801 0.35053
 H1213 H 1.06412 0.57039 0.36926
 C1214 C 1.08855 0.59893 0.30271
 C1215 C 0.84692 0.43634 0.42542
 H1216 H 0.86616 0.44201 0.43219
 C1217 C 0.79707 0.42142 0.40747
 C1218 C 1.15420 0.57271 0.43675
 H1219 H 1.13544 0.56520 0.44310
 C1220 C 1.20197 0.59363 0.41914
 C1221 C 0.93250 0.35102 0.42146
 H1222 H 0.93793 0.37043 0.42818
 C1223 C 0.91823 0.30067 0.40391
 C1224 C 1.06861 0.65713 0.44168
 H1225 H 1.06173 0.63788 0.44742
 C1226 C 1.08694 0.70683 0.42626
 C1227 C 0.93382 0.57704 0.34940
 H1228 H 0.93918 0.57029 0.36881
 C1229 C 0.91966 0.59477 0.29910
 C1230 C 1.06957 0.44148 0.34306
 H1231 H 1.06274 0.44708 0.36238
 C1232 C 1.08770 0.42654 0.29310
 C1233 C 1.06936 0.35044 0.42253
 H1234 H 1.06371 0.36976 0.42932
 C1235 C 1.08415 0.30026 0.40480
 C1236 C 0.93286 0.65689 0.44001
 H1237 H 0.93967 0.63764 0.44587
 C1238 C 0.91487 0.70670 0.42442
 C1239 C 0.84748 0.57239 0.43430
 H1240 H 0.86682 0.56594 0.44009
 C1241 C 0.79734 0.58933 0.41916
 C1242 C 1.15439 0.43617 0.42832
 H1243 H 1.13501 0.44191 0.43470
 C1244 C 1.20461 0.42114 0.41144
 O1245 O 1.02449 0.39782 0.62352
 O1246 O 1.02421 0.36539 0.65212
 C1247 C 1.03321 0.38725 0.64430
 C1248 C 1.05449 0.40016 0.65913
 C1249 C 1.06247 0.39028 0.68355
 H1250 H 1.05161 0.37419 0.69178
 O1251 O 0.97354 0.58594 0.63508
 O1252 O 0.97321 0.61452 0.66755
 C1253 C 0.96439 0.59382 0.65686
 C1254 C 0.94289 0.57907 0.66953
 C1255 C 0.93340 0.58669 0.69422
 H1256 H 0.94222 0.60322 0.70419
 O1257 O 0.86920 0.51952 0.59424
 O1258 O 0.83851 0.51774 0.62455
 C1259 C 0.84799 0.52806 0.60397
 C1260 C 0.83473 0.55080 0.59175
 C1261 C 0.81081 0.55988 0.60168
 H1262 H 0.80132 0.54868 0.61691
 O1263 O 1.13041 0.46829 0.59309
 O1264 O 1.16062 0.46627 0.62385
 C1265 C 1.15166 0.45882 0.60183
 C1266 C 1.16568 0.43858 0.58639
 C1267 C 1.19051 0.42965 0.59403
 H1268 H 1.19968 0.43793 0.61129
 O1269 O 1.09478 0.36824 0.51757
 O1270 O 1.12516 0.33757 0.51605
 C1271 C 1.10381 0.34637 0.52532
 C1272 C 1.08953 0.33136 0.54570
 C1273 C 1.09844 0.30656 0.55380
 H1274 H 1.11589 0.29859 0.54491
 O1275 O 0.90586 0.62865 0.53203
 O1276 O 0.87576 0.65961 0.53353
 C1277 C 0.89694 0.64968 0.54197
 C1278 C 0.91120 0.66237 0.56383
 C1279 C 0.90402 0.68740 0.57279
 H1280 H 0.88797 0.69761 0.56341
 O1281 O 0.90444 0.46613 0.62715
 O1282 O 0.87397 0.46432 0.65769
 C1283 C 0.89533 0.45605 0.64800
 C1284 C 0.90965 0.43435 0.66084
 C1285 C 0.90226 0.42530 0.68575
 H1286 H 0.88585 0.43437 0.69566
 O1287 O 1.09374 0.51682 0.63173
 O1288 O 1.12371 0.51484 0.66273
 C1289 C 1.10257 0.52438 0.65374
 C1290 C 1.08842 0.54493 0.66868
 C1291 C 1.09736 0.55291 0.69347
 H1292 H 1.11467 0.54375 0.70141
 O1293 O 0.97360 0.36449 0.58507
 O1294 O 0.97328 0.33203 0.61362
 C1295 C 0.96452 0.34268 0.59288
 C1296 C 0.94313 0.32991 0.57807
 C1297 C 0.93367 0.30526 0.58574
 H1298 H 0.94245 0.29538 0.60235
 O1299 O 1.02481 0.62410 0.60211
 O1300 O 1.02450 0.65288 0.63442
 C1301 C 1.03347 0.64498 0.61257
 C1302 C 1.05439 0.65996 0.59922
 C1303 C 1.06169 0.68500 0.60811
 H1304 H 1.05189 0.69295 0.62508
 O1305 O 0.86892 0.40448 0.51768
 O1306 O 0.83844 0.37402 0.51543
 C1307 C 0.84756 0.39476 0.52579
 C1308 C 0.83357 0.40744 0.54785
 C1309 C 0.80884 0.39849 0.55576
 H1310 H 0.80031 0.38217 0.54538
 O1311 O 1.13037 0.59284 0.53242
 O1312 O 1.16059 0.62355 0.53475
 C1313 C 1.15139 0.60168 0.54229
 C1314 C 1.16476 0.58666 0.56326
 C1315 C 1.18863 0.59535 0.57371
 H1316 H 1.19796 0.61252 0.56544
 O1317 O 1.02457 0.58578 0.63548
 O1318 O 1.02435 0.61435 0.66795
 C1319 C 1.03335 0.59361 0.65742
 C1320 C 1.05463 0.57878 0.67045
 C1321 C 1.06384 0.58642 0.69523
 H1322 H 1.05499 0.60308 0.70499
 O1323 O 0.97357 0.39774 0.62354
 O1324 O 0.97337 0.36541 0.65225
 C1325 C 0.96465 0.38735 0.64434
 C1326 C 0.94366 0.40083 0.65915
 C1327 C 0.93604 0.39202 0.68411
 H1328 H 0.94567 0.37501 0.69225
 O1329 O 1.13006 0.51935 0.59657
 O1330 O 1.16019 0.51742 0.62742
 C1331 C 1.15111 0.52782 0.60669
 C1332 C 1.16463 0.55053 0.59468
 C1333 C 1.18853 0.55946 0.60481
 H1334 H 1.19774 0.54827 0.62021
 O1335 O 0.86868 0.46846 0.59117
 O1336 O 0.83798 0.46658 0.62146
 C1337 C 0.84728 0.45907 0.59960
 C1338 C 0.83346 0.43886 0.58399
 C1339 C 0.80870 0.42974 0.59157
 H1340 H 0.79941 0.43792 0.60883
 O1341 O 1.09424 0.62844 0.53396
 O1342 O 1.12428 0.65936 0.53608
 C1343 C 1.10296 0.64943 0.54410
 C1344 C 1.08832 0.66211 0.56569
 C1345 C 1.09534 0.68712 0.57476
 H1346 H 1.11150 0.69735 0.56562
 O1347 O 0.90483 0.36880 0.51593
 O1348 O 0.87453 0.33815 0.51381
 C1349 C 0.89566 0.34694 0.52351
 C1350 C 0.90946 0.33194 0.54420
 C1351 C 0.90026 0.30724 0.55218
 H1352 H 0.88299 0.29944 0.54288
 O1353 O 1.09417 0.46579 0.62853
 O1354 O 1.12414 0.46371 0.65952
 C1355 C 1.10301 0.45546 0.64939
 C1356 C 1.08874 0.43333 0.66158
 C1357 C 1.09662 0.42304 0.68588
 H1358 H 1.11289 0.43188 0.69619
 O1359 O 0.90453 0.51710 0.63034
 O1360 O 0.87397 0.51533 0.66079
 C1361 C 0.89527 0.52478 0.65216
 C1362 C 0.90914 0.54533 0.66730
 C1363 C 0.89990 0.55326 0.69202
 H1364 H 0.88257 0.54402 0.69974
 O1365 O 0.97397 0.62411 0.60153
 O1366 O 0.97369 0.65290 0.63382
 C1367 C 0.96512 0.64502 0.61180
 C1368 C 0.94448 0.66008 0.59802
 C1369 C 0.93704 0.68514 0.60676
 H1370 H 0.94644 0.69307 0.62396
 O1371 O 1.02468 0.36422 0.58546
 O1372 O 1.02438 0.33169 0.61393
 C1373 C 1.03354 0.34232 0.59336
 C1374 C 1.05514 0.32944 0.57887
 C1375 C 1.06435 0.30472 0.58669
 H1376 H 1.05530 0.29501 0.60323
 O1377 O 1.13078 0.40379 0.51995
 O1378 O 1.16136 0.37332 0.51822
 C1379 C 1.15206 0.39410 0.52837
 C1380 C 1.16582 0.40694 0.55045
 C1381 C 1.19061 0.39820 0.55840
 H1382 H 1.19929 0.38182 0.54819
 O1383 O 0.86988 0.59305 0.53008
 O1384 O 0.83959 0.62379 0.53189
 C1385 C 0.84873 0.60195 0.53964
 C1386 C 0.83511 0.58703 0.56048
 C1387 C 0.81124 0.59594 0.57082
 H1388 H 0.80209 0.61321 0.56252
 Cu1389 Cu 0.99907 0.38431 0.60152
 Cu1390 Cu 0.99877 0.34532 0.63580
 Cu1391 Cu 0.99925 0.60210 0.61533
 Cu1392 Cu 0.99890 0.63647 0.65426
 Cu1393 Cu 0.89017 0.39123 0.49149
 Cu1394 Cu 0.85375 0.35448 0.48881
 Cu1395 Cu 1.10994 0.39058 0.49340
 Cu1396 Cu 1.14648 0.35384 0.49140
 Cu1397 Cu 0.89100 0.60909 0.50538
 Cu1398 Cu 0.85459 0.64598 0.50729
 Cu1399 Cu 1.10958 0.60898 0.50748
 Cu1400 Cu 1.14584 0.64589 0.51009
 Cu1401 Cu 0.88976 0.49290 0.60767
 Cu1402 Cu 0.85299 0.49076 0.64415
 Cu1403 Cu 1.10911 0.49270 0.60938
 Cu1404 Cu 1.14520 0.49033 0.64648
 C1405 C 1.06761 0.42178 0.64842
 H1406 H 1.06168 0.42930 0.62947
 C1407 C 1.08389 0.40123 0.69703
 C1408 C 0.93088 0.55810 0.65642
 H1409 H 0.93789 0.55232 0.63722
 C1410 C 0.91227 0.57359 0.70604
 C1411 C 0.84668 0.56444 0.57110
 H1412 H 0.86535 0.55773 0.56362
 C1413 C 0.79925 0.58302 0.59205
 C1414 C 1.15372 0.42739 0.56430
 H1415 H 1.13447 0.43399 0.55842
 C1416 C 1.20362 0.40995 0.57973
 C1417 C 1.06760 0.34242 0.55808
 H1418 H 1.06081 0.36166 0.55219
 C1419 C 1.08554 0.29264 0.57385
 C1420 C 0.93172 0.64907 0.57632
 H1421 H 0.93721 0.62965 0.56964
 C1422 C 0.91733 0.69946 0.59374
 C1423 C 0.93062 0.42225 0.64791
 H1424 H 0.93628 0.42899 0.62859
 C1425 C 0.91586 0.40469 0.69809
 C1426 C 1.06678 0.55771 0.65753
 H1427 H 1.06001 0.55189 0.63826
 C1428 C 1.08479 0.57323 0.70734
 C1429 C 0.93114 0.34292 0.55701
 H1430 H 0.93812 0.36210 0.55119
 C1431 C 0.91258 0.29336 0.57263
 C1432 C 1.06757 0.64888 0.57779
 H1433 H 1.06218 0.62948 0.57100
 C1434 C 1.08173 0.69920 0.59552
 C1435 C 0.84552 0.42786 0.56186
 H1436 H 0.86473 0.43460 0.55604
 C1437 C 0.79581 0.40994 0.57728
 C1438 C 1.15296 0.56421 0.57387
 H1439 H 1.13433 0.55764 0.56624
 C1440 C 1.20043 0.58239 0.59505
 O1441 O 0.47578 0.91343 0.36399
 O1442 O 0.47609 0.88497 0.33142
 C1443 C 0.46699 0.90560 0.34206
 C1444 C 0.44559 0.92032 0.32912
 C1445 C 0.43636 0.91259 0.30439
 H1446 H 0.44522 0.89592 0.29467
 O1447 O 0.52642 1.10243 0.37629
 O1448 O 0.52641 1.13476 0.34758
 C1449 C 0.53522 1.11285 0.35547
 C1450 C 0.55612 1.09939 0.34053
 C1451 C 0.56348 1.10818 0.31549
 H1452 H 0.55380 1.12520 0.30746
 O1453 O 0.37056 0.97999 0.40329
 O1454 O 0.34045 0.98199 0.37242
 C1455 C 0.34952 0.97157 0.39315
 C1456 C 0.33598 0.94887 0.40507
 C1457 C 0.31198 0.94018 0.39501
 H1458 H 0.30273 0.95165 0.37985
 O1459 O 0.63088 1.03177 0.40822
 O1460 O 0.66160 1.03393 0.37797
 C1461 C 0.65221 1.04135 0.39984
 C1462 C 0.66589 1.06161 0.41554
 C1463 C 0.69076 1.07064 0.40821
 H1464 H 0.70022 1.06241 0.39106
 O1465 O 0.40647 0.87032 0.46523
 O1466 O 0.37640 0.83944 0.46305
 C1467 C 0.39774 0.84934 0.45505
 C1468 C 0.41243 0.83670 0.43344
 C1469 C 0.40541 0.81174 0.42420
 H1470 H 0.38917 0.80152 0.43320
 O1471 O 0.59448 1.13172 0.48425
 O1472 O 0.62483 1.16232 0.48633
 C1473 C 0.60365 1.15357 0.47668
 C1474 C 0.58985 1.16857 0.45597
 C1475 C 0.59903 1.19327 0.44799
 H1476 H 0.61625 1.20111 0.45734
 O1477 O 0.40670 1.03331 0.37133
 O1478 O 0.37679 1.03533 0.34027
 C1479 C 0.39797 1.04350 0.35038
 C1480 C 0.41245 1.06527 0.33789
 C1481 C 0.40530 1.07446 0.31298
 H1482 H 0.38913 1.06533 0.30276
 O1483 O 0.59546 0.98290 0.36892
 O1484 O 0.62606 0.98484 0.33853
 C1485 C 0.60477 0.97529 0.34710
 C1486 C 0.59094 0.95475 0.33191
 C1487 C 0.59999 0.94708 0.30702
 H1488 H 0.61717 0.95651 0.29918
 O1489 O 0.52674 0.87532 0.39756
 O1490 O 0.52711 0.84666 0.36515
 C1491 C 0.53570 0.85452 0.38716
 C1492 C 0.55649 0.83959 0.40078
 C1493 C 0.56397 0.81455 0.39203
 H1494 H 0.55450 0.80657 0.37488
 O1495 O 0.47515 1.13565 0.41436
 O1496 O 0.47521 1.16817 0.38587
 C1497 C 0.46619 1.15750 0.40648
 C1498 C 0.44466 1.17032 0.42110
 C1499 C 0.43547 1.19511 0.41350
 H1500 H 0.44450 1.20496 0.39703
 O1501 O 0.36935 1.09560 0.47973
 O1502 O 0.33870 1.12599 0.48149
 C1503 C 0.34807 1.10527 0.47127
 C1504 C 0.33441 1.09247 0.44906
 C1505 C 0.30959 1.10110 0.44103
 H1506 H 0.30076 1.11739 0.45126
 O1507 O 0.63072 0.90714 0.46905
 O1508 O 0.66129 0.87667 0.46725
 C1509 C 0.65210 0.89858 0.45969
 C1510 C 0.66605 0.91414 0.43951
 C1511 C 0.69092 0.90660 0.43055
 H1512 H 0.70015 0.88930 0.43871
 O1513 O 0.47559 1.10213 0.37618
 O1514 O 0.47562 1.13449 0.34749
 C1515 C 0.46687 1.11252 0.35530
 C1516 C 0.44614 1.09901 0.34022
 C1517 C 0.43873 1.10797 0.31524
 H1518 H 0.44835 1.12506 0.30737
 O1519 O 0.52682 0.91366 0.36423
 O1520 O 0.52722 0.88520 0.33165
 C1521 C 0.53595 0.90592 0.34239
 C1522 C 0.55731 0.92086 0.32969
 C1523 C 0.56664 0.91348 0.30488
 H1524 H 0.55782 0.89698 0.29485
 O1525 O 0.63094 0.98072 0.40497
 O1526 O 0.66173 0.98279 0.37478
 C1527 C 0.65233 0.97246 0.39540
 C1528 C 0.66612 0.95032 0.40815
 C1529 C 0.69092 0.94243 0.39938
 H1530 H 0.69956 0.95274 0.38307
 O1531 O 0.37011 1.03110 0.40647
 O1532 O 0.33998 1.03316 0.37563
 C1533 C 0.34890 1.04062 0.39766
 C1534 C 0.33483 1.06088 0.41305
 C1535 C 0.30999 1.06972 0.40533
 H1536 H 0.30091 1.06141 0.38803
 O1537 O 0.40524 1.13123 0.48235
 O1538 O 0.37480 1.16184 0.48394
 C1539 C 0.39617 1.15312 0.47467
 C1540 C 0.41042 1.16822 0.45438
 C1541 C 0.40150 1.19308 0.44649
 H1542 H 0.38407 1.20096 0.45549
 O1543 O 0.59506 0.87114 0.46664
 O1544 O 0.62538 0.84040 0.46504
 C1545 C 0.60415 0.85021 0.45663
 C1546 C 0.58996 0.83748 0.43477
 C1547 C 0.59718 0.81245 0.42582
 H1548 H 0.61328 0.80229 0.43515
 O1549 O 0.59534 1.03389 0.37205
 O1550 O 0.62582 1.03591 0.34152
 C1551 C 0.60442 1.04406 0.35122
 C1552 C 0.59001 1.06577 0.33848
 C1553 C 0.59715 1.07480 0.31348
 H1554 H 0.61343 1.06568 0.30339
 O1555 O 0.40656 0.98232 0.36782
 O1556 O 0.37658 0.98432 0.33683
 C1557 C 0.39769 0.97473 0.34582
 C1558 C 0.41177 0.95412 0.33089
 C1559 C 0.40283 0.94610 0.30609
 H1560 H 0.38554 0.95526 0.29810
 O1561 O 0.52617 1.13568 0.41475
 O1562 O 0.52630 1.16817 0.38623
 C1563 C 0.53511 1.15756 0.40698
 C1564 C 0.55637 1.17044 0.42190
 C1565 C 0.56580 1.19510 0.41424
 H1566 H 0.55707 1.20493 0.39757
 O1567 O 0.47590 0.87499 0.39720
 O1568 O 0.47630 0.84633 0.36479
 C1569 C 0.46732 0.85410 0.38669
 C1570 C 0.44647 0.83899 0.39999
 C1571 C 0.43920 0.81399 0.39098
 H1572 H 0.44901 0.80610 0.37398
 O1573 O 0.63029 1.09594 0.48203
 O1574 O 0.66083 1.12635 0.48423
 C1575 C 0.65162 1.10566 0.47384
 C1576 C 0.66557 1.09301 0.45172
 C1577 C 0.69039 1.10186 0.44403
 H1578 H 0.69889 1.11813 0.45450
 O1579 O 0.37037 0.90596 0.46672
 O1580 O 0.34009 0.87531 0.46429
 C1581 C 0.34933 0.89719 0.45683
 C1582 C 0.33593 0.91237 0.43602
 C1583 C 0.31199 0.90385 0.42558
 H1584 H 0.30268 0.88657 0.43364
 Cu1585 Cu 0.50127 0.89722 0.38398
 Cu1586 Cu 0.50172 0.86299 0.34491
 Cu1587 Cu 0.50084 1.11574 0.39827
 Cu1588 Cu 0.50089 1.15473 0.36398
 Cu1589 Cu 0.39147 1.00654 0.39035
 Cu1590 Cu 0.35541 1.00896 0.35320
 Cu1591 Cu 0.61010 1.00717 0.39157
 Cu1592 Cu 0.64690 1.00960 0.35517
 C1593 C 0.43343 0.94137 0.34203
 H1594 H 0.44023 0.94722 0.36128
 C1595 C 0.41541 0.92575 0.29225
 C1596 C 0.56922 1.07795 0.35164
 H1597 H 0.56374 1.07122 0.37102
 C1598 C 0.58345 1.09545 0.30129
 C1599 C 0.34773 0.93492 0.42563
 H1600 H 0.36643 0.94134 0.43321
 C1601 C 0.30007 0.91717 0.40454
 C1602 C 0.65366 1.07266 0.43758
 H1603 H 0.63438 1.06598 0.44324
 C1604 C 0.70360 1.09036 0.42267
 C1605 C 0.43323 0.84996 0.42146
 H1606 H 0.43861 0.86933 0.42833
 C1607 C 0.41913 0.79973 0.40344
 C1608 C 0.56826 1.15752 0.44307
 H1609 H 0.56131 1.13832 0.44888
 C1610 C 0.58678 1.20708 0.42745
 C1611 C 0.43315 1.07742 0.35118
 H1612 H 0.43862 1.07056 0.37052
 C1613 C 0.41876 1.09534 0.30101
 C1614 C 0.56934 0.94179 0.34287
 H1615 H 0.56245 0.94738 0.36217
 C1616 C 0.58759 0.92680 0.29296
 C1617 C 0.56934 0.85068 0.42237
 H1618 H 0.56380 0.87008 0.42906
 C1619 C 0.58377 0.80030 0.40497
 C1620 C 0.43228 1.15722 0.44186
 H1621 H 0.43906 1.13793 0.44760
 C1622 C 0.41434 1.20711 0.42649
 C1623 C 0.34666 1.07209 0.43519
 H1624 H 0.36590 1.06554 0.44114
 C1625 C 0.29672 1.08932 0.41961
 C1626 C 0.65404 0.93630 0.42846
 H1627 H 0.63477 0.94213 0.43509
 C1628 C 0.70398 0.92104 0.41096
 O1629 O 0.52417 0.89740 0.62456
 O1630 O 0.52417 0.86506 0.65327
 C1631 C 0.53291 0.88703 0.64545
 C1632 C 0.55366 0.90056 0.66051
 C1633 C 0.56100 0.89169 0.68554
 H1634 H 0.55136 0.87462 0.69342
 O1635 O 0.47310 1.08562 0.63542
 O1636 O 0.47256 1.11407 0.66800
 C1637 C 0.46385 1.09337 0.65720
 C1638 C 0.44237 1.07851 0.66979
 C1639 C 0.43294 1.08596 0.69453
 H1640 H 0.44180 1.10242 0.70459
 O1641 O 0.36849 1.01858 0.59467
 O1642 O 0.33763 1.01653 0.62479
 C1643 C 0.34706 1.02682 0.60417
 C1644 C 0.33328 1.04894 0.59137
 C1645 C 0.30843 1.05681 0.60003
 H1646 H 0.29967 1.04646 0.61625
 O1647 O 0.62954 0.96819 0.59376
 O1648 O 0.65975 0.96601 0.62452
 C1649 C 0.65077 0.95864 0.60248
 C1650 C 0.66484 0.93852 0.58691
 C1651 C 0.68984 0.92985 0.59434
 H1652 H 0.69902 0.93815 0.61158
 O1653 O 0.59441 0.86837 0.51765
 O1654 O 0.62486 0.83777 0.51614
 C1655 C 0.60349 0.84653 0.52542
 C1656 C 0.58929 0.83148 0.54581
 C1657 C 0.59807 0.80653 0.55356
 H1658 H 0.61536 0.79856 0.54438
 O1659 O 0.40469 1.12817 0.53332
 O1660 O 0.37440 1.15893 0.53501
 C1661 C 0.39564 1.14909 0.54339
 C1662 C 0.40991 1.16182 0.56523
 C1663 C 0.40265 1.18682 0.57425
 H1664 H 0.38643 1.19690 0.56504
 O1665 O 0.40411 0.96548 0.62775
 O1666 O 0.37355 0.96355 0.65819
 C1667 C 0.39496 0.95537 0.64858
 C1668 C 0.40931 0.93368 0.66144
 C1669 C 0.40197 0.92468 0.68639
 H1670 H 0.38567 0.93386 0.69639
 O1671 O 0.59334 1.01712 0.63238
 O1672 O 0.62344 1.01516 0.66326
 C1673 C 0.60229 1.02473 0.65433
 C1674 C 0.58821 1.04530 0.66931
 C1675 C 0.59720 1.05330 0.69408
 H1676 H 0.61456 1.04421 0.70198
 O1677 O 0.47371 0.86363 0.58599
 O1678 O 0.47363 0.83115 0.61452
 C1679 C 0.46482 0.84172 0.59376
 C1680 C 0.44362 0.82878 0.57879
 C1681 C 0.43422 0.80406 0.58636
 H1682 H 0.44291 0.79420 0.60303
 O1683 O 0.52449 1.12408 0.60285
 O1684 O 0.52400 1.15261 0.63536
 C1685 C 0.53323 1.14478 0.61358
 C1686 C 0.55479 1.15945 0.60091
 C1687 C 0.56305 1.18374 0.61096
 H1688 H 0.55225 1.19209 0.62707
 O1689 O 0.36984 0.90319 0.51780
 O1690 O 0.33937 0.87273 0.51548
 C1691 C 0.34844 0.89350 0.52583
 C1692 C 0.33430 0.90627 0.54777
 C1693 C 0.30942 0.89749 0.55534
 H1694 H 0.30093 0.88122 0.54485
 O1695 O 0.63025 1.09267 0.53304
 O1696 O 0.66077 1.12309 0.53530
 C1697 C 0.65152 1.10117 0.54265
 C1698 C 0.66522 1.08553 0.56294
 C1699 C 0.69005 1.09291 0.57208
 H1700 H 0.69950 1.11004 0.56385
 O1701 O 0.52415 1.08587 0.63626
 O1702 O 0.52366 1.11426 0.66889
 C1703 C 0.53282 1.09365 0.65827
 C1704 C 0.55422 1.07894 0.67124
 C1705 C 0.56349 1.08663 0.69599
 H1706 H 0.55459 1.10324 0.70578
 O1707 O 0.47328 0.89717 0.62418
 O1708 O 0.47329 0.86487 0.65292
 C1709 C 0.46439 0.88674 0.64497
 C1710 C 0.44329 0.90012 0.65973
 C1711 C 0.43569 0.89132 0.68470
 H1712 H 0.44537 0.87435 0.69279
 O1713 O 0.62954 1.01920 0.59703
 O1714 O 0.65981 1.01708 0.62773
 C1715 C 0.65079 1.02740 0.60694
 C1716 C 0.66483 1.04945 0.59437
 C1717 C 0.68958 1.05718 0.60337
 H1718 H 0.69801 1.04674 0.61970
 O1719 O 0.36885 0.96756 0.59128
 O1720 O 0.33805 0.96544 0.62145
 C1721 C 0.34750 0.95800 0.59962
 C1722 C 0.33387 0.93773 0.58389
 C1723 C 0.30896 0.92876 0.59113
 H1724 H 0.29945 0.93704 0.60823
 O1725 O 0.59438 1.12853 0.53530
 O1726 O 0.62467 1.15918 0.53751
 C1727 C 0.60338 1.14930 0.54567
 C1728 C 0.58915 1.16163 0.56778
 C1729 C 0.59723 1.18583 0.57814
 H1730 H 0.61354 1.19604 0.56926
 O1731 O 0.40572 0.86743 0.51623
 O1732 O 0.37543 0.83677 0.51412
 C1733 C 0.39653 0.84560 0.52385
 C1734 C 0.41023 0.83066 0.54464
 C1735 C 0.40106 0.80593 0.55254
 H1736 H 0.38388 0.79810 0.54312
 O1737 O 0.59321 0.96611 0.62921
 O1738 O 0.62317 0.96408 0.66022
 C1739 C 0.60194 0.95596 0.65020
 C1740 C 0.58738 0.93429 0.66279
 C1741 C 0.59439 0.92526 0.68781
 H1742 H 0.61046 0.93450 0.69810
 O1743 O 0.40417 1.01650 0.63053
 O1744 O 0.37349 1.01465 0.66085
 C1745 C 0.39481 1.02417 0.65230
 C1746 C 0.40862 1.04474 0.66747
 C1747 C 0.39945 1.05252 0.69227
 H1748 H 0.38219 1.04319 0.70002
 O1749 O 0.47350 1.12414 0.60225
 O1750 O 0.47305 1.15279 0.63467
 C1751 C 0.46450 1.14494 0.61263
 C1752 C 0.44365 1.15985 0.59902
 C1753 C 0.43612 1.18488 0.60780
 H1754 H 0.44566 1.19293 0.62487
 O1755 O 0.52470 0.86413 0.58616
 O1756 O 0.52472 0.83161 0.61465
 C1757 C 0.53371 0.84229 0.59401
 C1758 C 0.55520 0.82949 0.57930
 C1759 C 0.56428 0.80460 0.58674
 H1760 H 0.55521 0.79468 0.60316
 O1761 O 0.63026 0.90403 0.52008
 O1762 O 0.66092 0.87364 0.51837
 C1763 C 0.65154 0.89438 0.52854
 C1764 C 0.66521 0.90719 0.55069
 C1765 C 0.69014 0.89871 0.55845
 H1766 H 0.69899 0.88253 0.54805
 O1767 O 0.36895 1.09225 0.53072
 O1768 O 0.33841 1.12274 0.53259
 C1769 C 0.34756 1.10080 0.54006
 C1770 C 0.33355 1.08517 0.56011
 C1771 C 0.30867 1.09274 0.56897
 H1772 H 0.29952 1.11008 0.56082
 Cu1773 Cu 0.49895 0.88382 0.60236
 Cu1774 Cu 0.49897 0.84486 0.63666
 Cu1775 Cu 0.49884 1.10208 0.61594
 Cu1776 Cu 0.49823 1.13625 0.65503
 Cu1777 Cu 0.39111 0.88981 0.49168
 Cu1778 Cu 0.35476 0.85299 0.48901
 Cu1779 Cu 0.60958 0.89073 0.49347
 Cu1780 Cu 0.64619 0.85405 0.49153
 Cu1781 Cu 0.39009 1.10875 0.50639
 Cu1782 Cu 0.35351 1.14545 0.50846
 Cu1783 Cu 0.60930 1.10918 0.50848
 Cu1784 Cu 0.64582 1.14582 0.51107
 Cu1785 Cu 0.38947 0.99218 0.60803
 Cu1786 Cu 0.35258 0.98981 0.64436
 Cu1787 Cu 0.60840 0.99281 0.61000
 Cu1788 Cu 0.64457 0.99033 0.64704
 C1789 C 0.56671 0.92209 0.64949
 H1790 H 0.56131 0.92884 0.63010
 C1791 C 0.58092 0.90439 0.69981
 C1792 C 0.43033 1.05761 0.65658
 H1793 H 0.43729 1.05196 0.63732
 C1794 C 0.41184 1.07280 0.70634
 C1795 C 0.34548 1.06299 0.57115
 H1796 H 0.36478 1.05717 0.56461
 C1797 C 0.29550 1.07830 0.58847
 C1798 C 0.65291 0.92736 0.56479
 H1799 H 0.63356 0.93378 0.55904
 C1800 C 0.70312 0.91046 0.57979
 C1801 C 0.56758 0.84260 0.55854
 H1802 H 0.56090 0.86196 0.55291
 C1803 C 0.58529 0.79253 0.57362
 C1804 C 0.43069 1.14870 0.57749
 H1805 H 0.43627 1.12933 0.57077
 C1806 C 0.41616 1.19905 0.59499
 C1807 C 0.43022 0.92152 0.64847
 H1808 H 0.43585 0.92824 0.62913
 C1809 C 0.41551 0.90400 0.69869
 C1810 C 0.56646 1.05796 0.65826
 H1811 H 0.55963 1.05211 0.63903
 C1812 C 0.58455 1.07352 0.70804
 C1813 C 0.43176 0.84172 0.55762
 H1814 H 0.43870 0.86093 0.55185
 C1815 C 0.41328 0.79207 0.57305
 C1816 C 0.56787 1.14867 0.57927
 H1817 H 0.56178 1.12980 0.57165
 C1818 C 0.58463 1.19702 0.60004
 C1819 C 0.34618 0.92663 0.56193
 H1820 H 0.36551 0.93327 0.55636
 C1821 C 0.29616 0.90904 0.57665
 C1822 C 0.65300 1.06352 0.57394
 H1823 H 0.63376 1.05783 0.56717
 C1824 C 0.70281 1.07853 0.59192
 O1825 O 0.59276 0.51685 1.13275
 O1826 O 0.62283 0.51504 1.16366
 C1827 C 0.60165 0.52451 1.15470
 C1828 C 0.58748 0.54504 1.16963
 C1829 C 0.59624 0.55289 1.19454
 H1830 H 0.61347 0.54368 1.20260
 O1831 O 0.40367 0.46542 1.12851
 O1832 O 0.37295 0.46360 1.15878
 C1833 C 0.39429 0.45520 1.14918
 C1834 C 0.40807 0.43293 1.16169
 C1835 C 0.39943 0.42268 1.18573
 H1836 H 0.38322 0.43197 1.19577
 O1837 O 0.52377 0.62413 1.10293
 O1838 O 0.52346 0.65278 1.13535
 C1839 C 0.53246 0.64494 1.11347
 C1840 C 0.55348 0.65991 1.10027
 C1841 C 0.56082 0.68487 1.10932
 H1842 H 0.55092 0.69281 1.12623
 O1843 O 0.47357 0.36365 1.08665
 O1844 O 0.47344 0.33108 1.11508
 C1845 C 0.46470 0.34169 1.09430
 C1846 C 0.44357 0.32876 1.07920
 C1847 C 0.43424 0.30397 1.08661
 H1848 H 0.44296 0.29404 1.10322
 O1849 O 0.62970 0.59272 1.03347
 O1850 O 0.66013 0.62321 1.03598
 C1851 C 0.65086 0.60128 1.04327
 C1852 C 0.66450 0.58569 1.06360
 C1853 C 0.68933 0.59307 1.07267
 H1854 H 0.69877 0.61020 1.06443
 O1855 O 0.36946 0.40330 1.01870
 O1856 O 0.33898 0.37285 1.01635
 C1857 C 0.34806 0.39360 1.02673
 C1858 C 0.33390 0.40638 1.04866
 C1859 C 0.30897 0.39766 1.05619
 H1860 H 0.30046 0.38139 1.04572
 O1861 O 0.47257 0.58575 1.13579
 O1862 O 0.47226 0.61421 1.16836
 C1863 C 0.46347 0.59352 1.15762
 C1864 C 0.44208 0.57866 1.17035
 C1865 C 0.43285 0.58610 1.19516
 H1866 H 0.44175 0.60260 1.20512
 O1867 O 0.52376 0.39744 1.12554
 O1868 O 0.52364 0.36512 1.15426
 C1869 C 0.53244 0.38707 1.14644
 C1870 C 0.55329 0.40054 1.16144
 C1871 C 0.56076 0.39165 1.18643
 H1872 H 0.55106 0.37466 1.19443
 O1873 O 0.62918 0.46806 1.09418
 O1874 O 0.65938 0.46606 1.12496
 C1875 C 0.65044 0.45862 1.10292
 C1876 C 0.66460 0.43852 1.08741
 C1877 C 0.68956 0.42989 1.09497
 H1878 H 0.69860 0.43819 1.11228
 O1879 O 0.36842 0.51873 1.09533
 O1880 O 0.33748 0.51690 1.12538
 C1881 C 0.34699 0.52708 1.10474
 C1882 C 0.33328 0.54915 1.09178
 C1883 C 0.30829 0.55692 1.10014
 H1884 H 0.29937 0.54656 1.11627
 O1885 O 0.40454 0.62870 1.03369
 O1886 O 0.37418 0.65939 1.03538
 C1887 C 0.39543 0.64959 1.04376
 C1888 C 0.40963 0.66230 1.06564
 C1889 C 0.40239 0.68730 1.07464
 H1890 H 0.38623 0.69743 1.06538
 O1891 O 0.59437 0.36799 1.01877
 O1892 O 0.62479 0.33736 1.01738
 C1893 C 0.60346 0.34618 1.02666
 C1894 C 0.58930 0.33126 1.04717
 C1895 C 0.59812 0.30635 1.05505
 H1896 H 0.61542 0.29834 1.04594
 O1897 O 0.40388 0.51650 1.13146
 O1898 O 0.37316 0.51480 1.16173
 C1899 C 0.39452 0.52423 1.15320
 C1900 C 0.40840 0.54480 1.16833
 C1901 C 0.39943 0.55256 1.19323
 H1902 H 0.38227 0.54317 1.20116
 O1903 O 0.59299 0.46583 1.12977
 O1904 O 0.62296 0.46396 1.16078
 C1905 C 0.60177 0.45573 1.15077
 C1906 C 0.58727 0.43404 1.16343
 C1907 C 0.59447 0.42492 1.18836
 H1908 H 0.61074 0.43399 1.19847
 O1909 O 0.52457 0.36401 1.08728
 O1910 O 0.52451 0.33151 1.11579
 C1911 C 0.53358 0.34219 1.09519
 C1912 C 0.55517 0.32937 1.08062
 C1913 C 0.56429 0.30454 1.08821
 H1914 H 0.55523 0.29469 1.10467
 O1915 O 0.47287 0.62435 1.10272
 O1916 O 0.47261 0.65300 1.13514
 C1917 C 0.46398 0.64518 1.11313
 C1918 C 0.44320 0.66018 1.09955
 C1919 C 0.43573 0.68524 1.10832
 H1920 H 0.44525 0.69325 1.12543
 O1921 O 0.36914 0.59245 1.03112
 O1922 O 0.33854 0.62289 1.03297
 C1923 C 0.34774 0.60096 1.04044
 C1924 C 0.33369 0.58531 1.06043
 C1925 C 0.30869 0.59277 1.06901
 H1926 H 0.29956 0.61006 1.06073
 O1927 O 0.63020 0.40374 1.02072
 O1928 O 0.66084 0.37334 1.01911
 C1929 C 0.65150 0.39415 1.02917
 C1930 C 0.66517 0.40711 1.05125
 C1931 C 0.69010 0.39869 1.05912
 H1932 H 0.69904 0.38251 1.04880
 O1933 O 0.47277 0.39697 1.12500
 O1934 O 0.47265 0.36454 1.15360
 C1935 C 0.46366 0.38636 1.14560
 C1936 C 0.44195 0.39924 1.15994
 C1937 C 0.43305 0.38923 1.18401
 H1938 H 0.44345 0.37296 1.19264
 O1939 O 0.52360 0.58589 1.13637
 O1940 O 0.52335 0.61435 1.16895
 C1941 C 0.53236 0.59367 1.15834
 C1942 C 0.55363 0.57882 1.17137
 C1943 C 0.56269 0.58637 1.19623
 H1944 H 0.55376 0.60299 1.20599
 O1945 O 0.36845 0.46770 1.09211
 O1946 O 0.33752 0.46581 1.12217
 C1947 C 0.34703 0.45825 1.10040
 C1948 C 0.33341 0.43795 1.08470
 C1949 C 0.30847 0.42901 1.09191
 H1950 H 0.29895 0.43732 1.10898
 O1951 O 0.62909 0.51909 1.09754
 O1952 O 0.65934 0.51712 1.12828
 C1953 C 0.65028 0.52740 1.10748
 C1954 C 0.66424 0.54953 1.09493
 C1955 C 0.68904 0.55724 1.10384
 H1956 H 0.69757 0.54673 1.12006
 O1957 O 0.40553 0.36769 1.01686
 O1958 O 0.37525 0.33702 1.01467
 C1959 C 0.39637 0.34581 1.02439
 C1960 C 0.41016 0.33077 1.04507
 C1961 C 0.40107 0.30597 1.05281
 H1962 H 0.38390 0.29814 1.04336
 O1963 O 0.59369 0.62848 1.03518
 O1964 O 0.62387 0.65924 1.03758
 C1965 C 0.60247 0.64938 1.04547
 C1966 C 0.58774 0.66203 1.06705
 C1967 C 0.59481 0.68695 1.07631
 H1968 H 0.61112 0.69712 1.06739
 Cu1969 Cu 0.60800 0.49260 1.11047
 Cu1970 Cu 0.64416 0.49031 1.14752
 Cu1971 Cu 0.38919 0.49225 1.10886
 Cu1972 Cu 0.35219 0.49010 1.14506
 Cu1973 Cu 0.49822 0.60217 1.11620
 Cu1974 Cu 0.49789 0.63639 1.15527
 Cu1975 Cu 0.49868 0.38377 1.10328
 Cu1976 Cu 0.49858 0.34478 1.13752
 C1977 C 0.56588 0.55784 1.15842
 H1978 H 0.55922 0.55211 1.13909
 C1979 C 0.58353 0.57310 1.20845
 C1980 C 0.42937 0.42111 1.14902
 H1981 H 0.43590 0.42868 1.13029
 C1982 C 0.41131 0.40039 1.19688
 C1983 C 0.56680 0.64885 1.07891
 H1984 H 0.56138 0.62951 1.07200
 C1985 C 0.58105 0.69902 1.09700
 C1986 C 0.43166 0.34181 1.05812
 H1987 H 0.43852 0.36109 1.05248
 C1988 C 0.41333 0.29201 1.07322
 C1989 C 0.65231 0.56365 1.07459
 H1990 H 0.63305 0.55796 1.06786
 C1991 C 0.70219 0.57865 1.09239
 C1992 C 0.34576 0.42677 1.06280
 H1993 H 0.36510 0.43337 1.05726
 C1994 C 0.29565 0.40930 1.07742
 C1995 C 0.42999 0.55772 1.15726
 H1996 H 0.43681 0.55208 1.13795
 C1997 C 0.41192 0.57286 1.20719
 C1998 C 0.56641 0.42198 1.15031
 H1999 H 0.56090 0.42877 1.13096
 C2000 C 0.58090 0.40421 1.20052
 C2001 C 0.65278 0.42730 1.06526
 H2002 H 0.63343 0.43367 1.05945
 C2003 C 0.70295 0.41051 1.08051
 C2004 C 0.34563 0.56322 1.07165
 H2005 H 0.36502 0.55749 1.06533
 C2006 C 0.29538 0.57831 1.08837
 C2007 C 0.43029 0.64910 1.07797
 H2008 H 0.43583 0.62971 1.07125
 C2009 C 0.41587 0.69948 1.09544
 C2010 C 0.56756 0.34240 1.05981
 H2011 H 0.56084 0.36171 1.05405
 C2012 C 0.58532 0.29241 1.07515
 O2013 O 0.59579 0.48289 0.86982
 O2014 O 0.62631 0.48490 0.83935
 C2015 C 0.60504 0.47535 0.84796
 C2016 C 0.59122 0.45480 0.83279
 C2017 C 0.60038 0.44697 0.80799
 H2018 H 0.61763 0.45630 0.80017
 O2019 O 0.40657 0.53372 0.87189
 O2020 O 0.37668 0.53560 0.84079
 C2021 C 0.39783 0.54384 0.85089
 C2022 C 0.41228 0.56563 0.83837
 C2023 C 0.40506 0.57485 0.81349
 H2024 H 0.38885 0.56576 0.80331
 O2025 O 0.47502 0.63600 0.91479
 O2026 O 0.47516 0.66842 0.88620
 C2027 C 0.46609 0.65784 0.90683
 C2028 C 0.44452 0.67066 0.92139
 C2029 C 0.43524 0.69542 0.91375
 H2030 H 0.44427 0.70533 0.89731
 O2031 O 0.52670 0.37525 0.89850
 O2032 O 0.52697 0.34666 0.86603
 C2033 C 0.53554 0.35440 0.88810
 C2034 C 0.55620 0.33928 0.90174
 C2035 C 0.56383 0.31437 0.89274
 H2036 H 0.55451 0.30658 0.87543
 O2037 O 0.63044 0.40634 0.96960
 O2038 O 0.66083 0.37570 0.96782
 C2039 C 0.65162 0.39751 0.96002
 C2040 C 0.66517 0.41245 0.93910
 C2041 C 0.68880 0.40332 0.92837
 H2042 H 0.69785 0.38590 0.93645
 O2043 O 0.36928 0.59599 0.98016
 O2044 O 0.33859 0.62633 0.98194
 C2045 C 0.34798 0.60563 0.97173
 C2046 C 0.33431 0.59280 0.94957
 C2047 C 0.30946 0.60138 0.94160
 H2048 H 0.30063 0.61766 0.95185
 O2049 O 0.52632 0.60240 0.87712
 O2050 O 0.52645 0.63463 0.84829
 C2051 C 0.53524 0.61274 0.85631
 C2052 C 0.55622 0.59925 0.84153
 C2053 C 0.56360 0.60796 0.81648
 H2054 H 0.55388 0.62493 0.80841
 O2055 O 0.47613 0.41386 0.86483
 O2056 O 0.47643 0.38548 0.83219
 C2057 C 0.46737 0.40612 0.84285
 C2058 C 0.44601 0.42087 0.82991
 C2059 C 0.43675 0.41310 0.80520
 H2060 H 0.44565 0.39646 0.79545
 O2061 O 0.63140 0.53146 0.90927
 O2062 O 0.66208 0.53361 0.87898
 C2063 C 0.65272 0.54102 0.90086
 C2064 C 0.66637 0.56133 0.91650
 C2065 C 0.69111 0.57056 0.90901
 H2066 H 0.70053 0.56239 0.89181
 O2067 O 0.37048 0.48040 0.90400
 O2068 O 0.34039 0.48232 0.87311
 C2069 C 0.34942 0.47198 0.89390
 C2070 C 0.33578 0.44941 0.90596
 C2071 C 0.31167 0.44086 0.89603
 H2072 H 0.30242 0.45234 0.88089
 O2073 O 0.59452 0.63167 0.98421
 O2074 O 0.62483 0.66229 0.98652
 C2075 C 0.60374 0.65354 0.97672
 C2076 C 0.59002 0.66860 0.95603
 C2077 C 0.59926 0.69329 0.94809
 H2078 H 0.61656 0.70101 0.95739
 O2079 O 0.40590 0.37068 0.96582
 O2080 O 0.37575 0.33989 0.96352
 C2081 C 0.39703 0.34985 0.95544
 C2082 C 0.41139 0.33758 0.93337
 C2083 C 0.40350 0.31331 0.92302
 H2084 H 0.38724 0.30299 0.93187
 O2085 O 0.40667 0.48270 0.86865
 O2086 O 0.37670 0.48456 0.83763
 C2087 C 0.39785 0.47506 0.84665
 C2088 C 0.41203 0.45451 0.83173
 C2089 C 0.40304 0.44640 0.80698
 H2090 H 0.38567 0.45546 0.79906
 O2091 O 0.59565 0.53384 0.87326
 O2092 O 0.62608 0.53589 0.84270
 C2093 C 0.60469 0.54403 0.85243
 C2094 C 0.59023 0.56571 0.83965
 C2095 C 0.59734 0.57465 0.81460
 H2096 H 0.61360 0.56550 0.80451
 O2097 O 0.47581 0.37553 0.89810
 O2098 O 0.47614 0.34702 0.86556
 C2099 C 0.46704 0.35483 0.88740
 C2100 C 0.44565 0.34004 0.90018
 C2101 C 0.43763 0.31567 0.89019
 H2102 H 0.44847 0.30743 0.87406
 O2103 O 0.52603 0.63609 0.91513
 O2104 O 0.52627 0.66849 0.88651
 C2105 C 0.53504 0.65792 0.90728
 C2106 C 0.55638 0.67073 0.92214
 C2107 C 0.56583 0.69541 0.91456
 H2108 H 0.55703 0.70536 0.89800
 O2109 O 0.37004 0.40647 0.96768
 O2110 O 0.33970 0.37589 0.96523
 C2111 C 0.34897 0.39778 0.95782
 C2112 C 0.33558 0.41304 0.93706
 C2113 C 0.31154 0.40466 0.92676
 H2114 H 0.30213 0.38748 0.93493
 O2115 O 0.63037 0.59589 0.98249
 O2116 O 0.66085 0.62633 0.98491
 C2117 C 0.65177 0.60560 0.97449
 C2118 C 0.66591 0.59290 0.95252
 C2119 C 0.69064 0.60192 0.94472
 H2120 H 0.69905 0.61832 0.95508
 O2121 O 0.52716 0.41375 0.86524
 O2122 O 0.52749 0.38532 0.83264
 C2123 C 0.53628 0.40600 0.84340
 C2124 C 0.55766 0.42086 0.83068
 C2125 C 0.56709 0.41332 0.80595
 H2126 H 0.55835 0.39671 0.79604
 O2127 O 0.47546 0.60247 0.87662
 O2128 O 0.47562 0.63473 0.84782
 C2129 C 0.46680 0.61282 0.85569
 C2130 C 0.44602 0.59932 0.84064
 C2131 C 0.43855 0.60831 0.81569
 H2132 H 0.44816 0.62540 0.80781
 O2133 O 0.37002 0.53149 0.90706
 O2134 O 0.33991 0.53346 0.87619
 C2135 C 0.34881 0.54096 0.89821
 C2136 C 0.33471 0.56121 0.91358
 C2137 C 0.30983 0.57002 0.90589
 H2138 H 0.30075 0.56169 0.88862
 O2139 O 0.63114 0.48032 0.90588
 O2140 O 0.66179 0.48235 0.87555
 C2141 C 0.65234 0.47183 0.89605
 C2142 C 0.66556 0.44889 0.90801
 C2143 C 0.68923 0.43954 0.89767
 H2144 H 0.69862 0.45065 0.88231
 O2145 O 0.59467 0.37053 0.96775
 O2146 O 0.62487 0.33967 0.96627
 C2147 C 0.60367 0.34953 0.95782
 C2148 C 0.58949 0.33688 0.93591
 C2149 C 0.59685 0.31199 0.92671
 H2150 H 0.61297 0.30180 0.93597
 O2151 O 0.40524 0.63154 0.98270
 O2152 O 0.37474 0.66208 0.98430
 C2153 C 0.39611 0.65338 0.97501
 C2154 C 0.41028 0.66849 0.95467
 C2155 C 0.40125 0.69327 0.94672
 H2156 H 0.38377 0.70106 0.95570
 Cu2157 Cu 0.61047 0.50700 0.89262
 Cu2158 Cu 0.64720 0.50947 0.85615
 Cu2159 Cu 0.39142 0.50695 0.89102
 Cu2160 Cu 0.35539 0.50921 0.85383
 Cu2161 Cu 0.60904 0.60913 1.00863
 Cu2162 Cu 0.64548 0.64584 1.01153
 Cu2163 Cu 0.60940 0.39022 0.99435
 Cu2164 Cu 0.64592 0.35346 0.99252
 Cu2165 Cu 0.39010 0.60912 1.00678
 Cu2166 Cu 0.35343 0.64574 1.00885
 Cu2167 Cu 0.39076 0.39009 0.99249
 Cu2168 Cu 0.35438 0.35333 0.98974
 Cu2169 Cu 0.50068 0.61603 0.89881
 Cu2170 Cu 0.50089 0.65488 0.86437
 Cu2171 Cu 0.50147 0.39746 0.88492
 Cu2172 Cu 0.50181 0.36331 0.84579
 C2173 C 0.56959 0.44189 0.84375
 H2174 H 0.56262 0.44761 0.86298
 C2175 C 0.58805 0.42660 0.79401
 C2176 C 0.43302 0.57774 0.85161
 H2177 H 0.43854 0.57086 0.87093
 C2178 C 0.41851 0.59573 0.80150
 C2179 C 0.43218 0.65757 0.94217
 H2180 H 0.43904 0.63832 0.94798
 C2181 C 0.41402 0.70734 0.92670
 C2182 C 0.56887 0.35015 0.92356
 H2183 H 0.56324 0.36945 0.93043
 C2184 C 0.58363 0.30005 0.90561
 C2185 C 0.65373 0.43525 0.92876
 H2186 H 0.63526 0.44214 0.93654
 C2187 C 0.70064 0.41619 0.90700
 C2188 C 0.34656 0.57246 0.93568
 H2189 H 0.36584 0.56595 0.94159
 C2190 C 0.29656 0.58958 0.92023
 C2191 C 0.56939 0.57789 0.85275
 H2192 H 0.56391 0.57122 0.87216
 C2193 C 0.58362 0.59525 0.80234
 C2194 C 0.43378 0.44189 0.84283
 H2195 H 0.44060 0.44779 0.86206
 C2196 C 0.41567 0.42610 0.79313
 C2197 C 0.65414 0.57236 0.93853
 H2198 H 0.63493 0.56555 0.94428
 C2199 C 0.70384 0.59046 0.92332
 C2200 C 0.34751 0.43546 0.92653
 H2201 H 0.36629 0.44177 0.93401
 C2202 C 0.29965 0.41796 0.90568
 C2203 C 0.56834 0.65768 0.94318
 H2204 H 0.56135 0.63849 0.94895
 C2205 C 0.58693 0.70726 0.92771
 C2206 C 0.43254 0.35072 0.92184
 H2207 H 0.43849 0.36965 0.92942
 C2208 C 0.41620 0.30221 0.90112
 C2209 C 1.11331 1.10321 1.27767
 C2210 C 1.08327 1.10210 1.27636
 C2211 C 1.07392 1.09193 1.25351
 C2212 C 1.09536 1.08379 1.23384
 C2213 C 1.11239 1.10835 1.23041
 C2214 C 1.12174 1.11846 1.25319
 C2215 C 1.12186 1.07463 1.27261
 C2216 C 1.11244 1.06449 1.24976
 H2217 H 1.07049 1.10770 1.29240
 H2218 H 1.05319 1.08882 1.25032
 H2219 H 1.11683 1.11701 1.21148
 H2220 H 1.13414 1.13571 1.25376
 H2221 H 1.13205 1.06239 1.28667
 H2222 H 1.11472 1.04385 1.24522
 C2223 C 1.11320 0.60305 0.77706
 C2224 C 1.12235 0.57472 0.77196
 C2225 C 1.11289 0.56432 0.74926
 C2226 C 1.09524 0.58322 0.73349
 C2227 C 1.07384 0.59097 0.75336
 C2228 C 1.08322 0.60139 0.77608
 C2229 C 1.12106 0.61846 0.75254
 C2230 C 1.11172 0.60814 0.72985
 H2231 H 1.13312 0.56286 0.78589
 H2232 H 1.11564 0.54373 0.74471
 H2233 H 1.05312 0.58756 0.75032
 H2234 H 1.07055 0.60696 0.79222
 H2235 H 1.13310 0.63597 0.75303
 H2236 H 1.11580 0.61688 0.71088
 C2237 C 0.61301 1.10306 0.77794
 C2238 C 0.62112 1.11840 0.75341
 C2239 C 0.61174 1.10818 0.73069
 C2240 C 0.59499 1.08345 0.73423
 C2241 C 0.61236 1.06434 0.75005
 C2242 C 0.62182 1.07457 0.77283
 C2243 C 0.58297 1.10164 0.77682
 C2244 C 0.57359 1.09137 0.75404
 H2245 H 0.63334 1.13578 0.75390
 H2246 H 0.61596 1.11690 0.71173
 H2247 H 0.61482 1.04371 0.74549
 H2248 H 0.63220 1.06243 0.78683
 H2249 H 0.57024 1.10712 0.79295
 H2250 H 0.55287 1.08805 0.75097
 C2251 C 0.61143 0.60235 1.27865
 C2252 C 0.58140 0.60127 1.27718
 C2253 C 0.57218 0.59108 1.25430
 C2254 C 0.59374 0.58290 1.23476
 C2255 C 0.61081 0.60744 1.23140
 C2256 C 0.62002 0.61756 1.25422
 C2257 C 0.61998 0.57375 1.27368
 C2258 C 0.61069 0.56360 1.25078
 H2259 H 0.56853 0.60687 1.29316
 H2260 H 0.55147 0.58794 1.25101
 H2261 H 0.61539 0.61607 1.21249
 H2262 H 0.63245 0.63479 1.25485
 H2263 H 0.63008 0.56153 1.28782
 H2264 H 0.61301 0.54295 1.24623
 C2265 C 0.89054 0.88160 1.27215
 C2266 C 0.87333 0.87267 1.24922
 C2267 C 0.88221 0.88043 1.22532
 C2268 C 0.90760 0.89649 1.22621
 C2269 C 0.90178 0.91929 1.24526
 C2270 C 0.89285 0.91155 1.26919
 C2271 C 0.91822 0.87146 1.26559
 C2272 C 0.92710 0.87927 1.24167
 H2273 H 0.85569 0.86111 1.25160
 H2274 H 0.87211 0.87545 1.20728
 H2275 H 0.90544 0.93976 1.24073
 H2276 H 0.88885 0.92541 1.28486
 H2277 H 0.93102 0.86155 1.27933
 H2278 H 0.94723 0.87585 1.23601
 C2279 C 0.88956 0.38005 0.77073
 C2280 C 0.87282 0.37108 0.74744
 C2281 C 0.88197 0.37914 0.72377
 C2282 C 0.90713 0.39549 0.72518
 C2283 C 0.90076 0.41808 0.74431
 C2284 C 0.89154 0.41004 0.76803
 C2285 C 0.91744 0.37025 0.76453
 C2286 C 0.92659 0.37837 0.74080
 H2287 H 0.85532 0.35925 0.74944
 H2288 H 0.87223 0.37416 0.70552
 H2289 H 0.90422 0.43863 0.74000
 H2290 H 0.88705 0.42371 0.78372
 H2291 H 0.93016 0.36031 0.77830
 H2292 H 0.94683 0.37519 0.73538
 C2293 C 0.38938 0.88049 0.77176
 C2294 C 0.37173 0.87249 0.74886
 C2295 C 0.38083 0.88007 0.72499
 C2296 C 0.40686 0.89508 0.72592
 C2297 C 0.40200 0.91791 0.74521
 C2298 C 0.39282 0.91030 0.76909
 C2299 C 0.41652 0.86923 0.76502
 C2300 C 0.42568 0.87689 0.74116
 H2301 H 0.35366 0.86163 0.75126
 H2302 H 0.37049 0.87564 0.70694
 H2303 H 0.40628 0.93829 0.74078
 H2304 H 0.38916 0.92412 0.78486
 H2305 H 0.42878 0.85843 0.77856
 H2306 H 0.44560 0.87256 0.73542
 C2307 C 0.38318 0.37452 1.26844
 C2308 C 0.39980 0.39948 1.26975
 C2309 C 0.40911 0.40745 1.24609
 C2310 C 0.40109 0.38986 1.22297
 C2311 C 0.40985 0.36196 1.23093
 C2312 C 0.40057 0.35397 1.25463
 C2313 C 0.36165 0.38043 1.24820
 C2314 C 0.37100 0.38839 1.22450
 H2315 H 0.40399 0.40993 1.28781
 H2316 H 0.42128 0.42475 1.24399
 H2317 H 0.41974 0.34824 1.21808
 H2318 H 0.40309 0.33388 1.26111
 H2319 H 0.34094 0.37758 1.25180
 H2320 H 0.35815 0.39220 1.20800
 C2321 C 0.89205 1.12012 0.72674
 C2322 C 0.91914 1.13158 0.73352
 C2323 C 0.92841 1.12380 0.75733
 C2324 C 0.90985 1.10529 0.77243
 C2325 C 0.88366 1.12003 0.77357
 C2326 C 0.87439 1.12775 0.74982
 C2327 C 0.89594 1.09029 0.72917
 C2328 C 0.90525 1.08258 0.75296
 H2329 H 0.93140 1.14245 0.72005
 H2330 H 0.94830 1.12823 0.76307
 H2331 H 0.87333 1.12422 0.79170
 H2332 H 0.85620 1.13850 0.74765
 H2333 H 0.89256 1.07653 0.71329
 H2334 H 0.90986 1.06223 0.75718
 C2335 C 0.89313 0.61884 0.22642
 C2336 C 0.87518 0.62590 0.24943
 C2337 C 0.88448 0.61818 0.27316
 C2338 C 0.91098 0.60399 0.27201
 C2339 C 0.90692 0.58136 0.25232
 C2340 C 0.89754 0.58912 0.22857
 C2341 C 0.91986 0.63085 0.23340
 C2342 C 0.92922 0.62304 0.25715
 H2343 H 0.85678 0.63627 0.24720
 H2344 H 0.87396 0.62199 0.29126
 H2345 H 0.91181 0.56105 0.25643
 H2346 H 0.89435 0.57548 0.21254
 H2347 H 0.93173 0.64236 0.22011
 H2348 H 0.94895 0.62796 0.26303
 C2349 C 0.39194 1.11966 0.22854
 C2350 C 0.41885 1.13139 0.23532
 C2351 C 0.42830 1.12348 0.25900
 C2352 C 0.40997 1.10463 0.27399
 C2353 C 0.38365 1.11913 0.27535
 C2354 C 0.37426 1.12695 0.25170
 C2355 C 0.39600 1.08990 0.23068
 C2356 C 0.40550 1.08205 0.25435
 H2357 H 0.43070 1.14293 0.22206
 H2358 H 0.44807 1.12830 0.26484
 H2359 H 0.37333 1.12308 0.29354
 H2360 H 0.35598 1.13757 0.24962
 H2361 H 0.39247 1.07629 0.21470
 H2362 H 0.41019 1.06168 0.25841
 C2363 C 0.39162 0.62016 0.72906
 C2364 C 0.37397 0.62744 0.75224
 C2365 C 0.38337 0.61958 0.77589
 C2366 C 0.40968 0.60506 0.77449
 C2367 C 0.40517 0.58250 0.75482
 C2368 C 0.39566 0.59039 0.73117
 C2369 C 0.41855 0.63185 0.73583
 C2370 C 0.42802 0.62390 0.75949
 H2371 H 0.35570 0.63807 0.75019
 H2372 H 0.37308 0.62353 0.79409
 H2373 H 0.40982 0.56212 0.75887
 H2374 H 0.39208 0.57679 0.71519
 H2375 H 0.43039 0.64342 0.72257
 H2376 H 0.44780 0.62871 0.76531
 C2377 C 1.11425 0.89739 0.72247
 C2378 C 1.08444 0.90087 0.72354
 C2379 C 1.07568 0.91125 0.74653
 C2380 C 1.09747 0.91714 0.76658
 C2381 C 1.11246 0.89116 0.76953
 C2382 C 1.12118 0.88088 0.74657
 C2383 C 1.12508 0.92495 0.72833
 C2384 C 1.11625 0.93531 0.75132
 H2385 H 1.07147 0.89639 0.70731
 H2386 H 1.05519 0.91572 0.74976
 H2387 H 1.11606 0.88171 0.78827
 H2388 H 1.13220 0.86270 0.74561
 H2389 H 1.13657 0.93652 0.71475
 H2390 H 1.12028 0.95556 0.75635
 C2391 C 1.11473 0.39759 0.22245
 C2392 C 1.12547 0.42514 0.22849
 C2393 C 1.11657 0.43532 0.25153
 C2394 C 1.09784 0.41697 0.26667
 C2395 C 1.07608 0.41115 0.24656
 C2396 C 1.08491 0.40097 0.22351
 C2397 C 1.12169 0.38093 0.24644
 C2398 C 1.11291 0.39102 0.26946
 H2399 H 1.13691 0.43683 0.21497
 H2400 H 1.12048 0.45556 0.25666
 H2401 H 1.05558 0.41556 0.24980
 H2402 H 1.07197 0.39660 0.20723
 H2403 H 1.13277 0.36280 0.24537
 H2404 H 1.11650 0.38146 0.28814
 C2405 C 0.61441 0.89732 0.22236
 C2406 C 0.58457 0.90094 0.22349
 C2407 C 0.57588 0.91129 0.24652
 C2408 C 0.59771 0.91709 0.26655
 C2409 C 0.61265 0.89109 0.26945
 C2410 C 0.62134 0.88080 0.24649
 C2411 C 0.62525 0.92494 0.22823
 C2412 C 0.61650 0.93526 0.25129
 H2413 H 0.57151 0.89671 0.20726
 H2414 H 0.55542 0.91592 0.24975
 H2415 H 0.61626 0.88163 0.28818
 H2416 H 0.63232 0.86259 0.24556
 H2417 H 0.63653 0.93662 0.21457
 H2418 H 0.62049 0.95550 0.25634
 C2419 C 0.61574 0.39671 0.72391
 C2420 C 0.62587 0.42469 0.72944
 C2421 C 0.61677 0.43511 0.75231
 C2422 C 0.59841 0.41669 0.76777
 C2423 C 0.57680 0.41004 0.74776
 C2424 C 0.58582 0.39957 0.72492
 C2425 C 0.62302 0.38074 0.74832
 C2426 C 0.61399 0.39113 0.77111
 H2427 H 0.63688 0.43655 0.71571
 H2428 H 0.62019 0.45553 0.75710
 H2429 H 0.55622 0.41422 0.75083
 H2430 H 0.57295 0.39473 0.70871
 H2431 H 0.63448 0.36282 0.74770
 H2432 H 0.61776 0.38204 0.78998
 C2433 C 1.27056 1.11142 1.12294
 C2434 C 1.24988 1.13278 1.11797
 C2435 C 1.22657 1.12326 1.10932
 C2436 C 1.22586 1.09317 1.10622
 C2437 C 1.24921 1.08659 1.08844
 C2438 C 1.27248 1.09605 1.09713
 C2439 C 1.25716 1.09254 1.14237
 C2440 C 1.23383 1.08313 1.13368
 H2441 H 1.25297 1.15348 1.12188
 H2442 H 1.20984 1.13596 1.10607
 H2443 H 1.24756 1.07519 1.07053
 H2444 H 1.29067 1.09275 1.08667
 H2445 H 1.26352 1.08886 1.16229
 H2446 H 1.22122 1.07214 1.14672
 C2447 C 1.27059 0.61140 0.62313
 C2448 C 1.27264 0.59607 0.59730
 C2449 C 1.24944 0.58648 0.58855
 C2450 C 1.22602 0.59289 0.60630
 C2451 C 1.23400 0.58287 0.63375
 C2452 C 1.25725 0.59240 0.64251
 C2453 C 1.24979 0.63263 0.61815
 C2454 C 1.22655 0.62299 0.60944
 H2455 H 1.29087 0.59288 0.58688
 H2456 H 1.24789 0.57509 0.57062
 H2457 H 1.22143 0.57178 0.64675
 H2458 H 1.26358 0.58872 0.66243
 H2459 H 1.25274 0.65335 0.62209
 H2460 H 1.20976 0.63558 0.60616
 C2461 C 0.77441 1.10622 0.61724
 C2462 C 0.76839 1.07867 0.62791
 C2463 C 0.74503 1.06890 0.61966
 C2464 C 0.72954 1.08766 0.60153
 C2465 C 0.72760 1.11349 0.61700
 C2466 C 0.75097 1.12316 0.62516
 C2467 C 0.77233 1.10317 0.58731
 C2468 C 0.74893 1.09347 0.57912
 H2469 H 0.78213 1.06676 0.63887
 H2470 H 0.73991 1.04869 0.62361
 H2471 H 0.70925 1.12331 0.62128
 H2472 H 0.75264 1.14119 0.63635
 H2473 H 0.78815 1.10744 0.57380
 H2474 H 0.74490 1.08947 0.55861
 C2475 C 0.77413 0.60619 1.11687
 C2476 C 0.75083 0.62325 1.12497
 C2477 C 0.72734 0.61362 1.11711
 C2478 C 0.72904 0.58771 1.10172
 C2479 C 0.74821 0.59336 1.07909
 C2480 C 0.77173 0.60302 1.08699
 C2481 C 0.76810 0.57870 1.12773
 C2482 C 0.74462 0.56899 1.11978
 H2483 H 0.75269 0.64132 1.13607
 H2484 H 0.70907 0.62352 1.12154
 H2485 H 0.74396 0.58931 1.05863
 H2486 H 0.78742 0.60721 1.07330
 H2487 H 0.78189 0.56675 1.13859
 H2488 H 0.73946 0.54882 1.12390
 C2489 C 1.27568 0.89395 0.88571
 C2490 C 1.25213 0.87814 0.87600
 C2491 C 1.22874 0.88767 0.88431
 C2492 C 1.23071 0.91225 0.90166
 C2493 C 1.24940 0.90448 0.92407
 C2494 C 1.27286 0.89494 0.91579
 C2495 C 1.27040 0.92239 0.87704
 C2496 C 1.24698 0.93198 0.88540
 H2497 H 1.25375 0.86094 0.86355
 H2498 H 1.21034 0.87857 0.87890
 H2499 H 1.24507 0.90743 0.94470
 H2500 H 1.28835 0.88989 0.92943
 H2501 H 1.28467 0.93484 0.86743
 H2502 H 1.24223 0.95255 0.88297
 C2503 C 1.27639 0.39375 0.38614
 C2504 C 1.27346 0.39440 0.41623
 C2505 C 1.25000 0.40395 0.42450
 C2506 C 1.23145 0.41205 0.40210
 C2507 C 1.24787 0.43190 0.38614
 C2508 C 1.27128 0.42229 0.37777
 C2509 C 1.25283 0.37815 0.37615
 C2510 C 1.22945 0.38768 0.38446
 H2511 H 1.28889 0.38932 0.42991
 H2512 H 1.24564 0.40679 0.44514
 H2513 H 1.24316 0.45249 0.38382
 H2514 H 1.28563 0.43466 0.36816
 H2515 H 1.25443 0.36106 0.36353
 H2516 H 1.21104 0.37870 0.37889
 C2517 C 0.77544 0.89361 0.38482
 C2518 C 0.77290 0.89427 0.41488
 C2519 C 0.74956 0.90384 0.42347
 C2520 C 0.73070 0.91189 0.40130
 C2521 C 0.74691 0.93170 0.38505
 C2522 C 0.77020 0.92207 0.37638
 C2523 C 0.75180 0.87795 0.37517
 C2524 C 0.72850 0.88747 0.38375
 H2525 H 0.78845 0.88880 0.42827
 H2526 H 0.74537 0.90648 0.44418
 H2527 H 0.74219 0.95229 0.38275
 H2528 H 0.78439 0.93443 0.36655
 H2529 H 0.75332 0.86085 0.36257
 H2530 H 0.71003 0.87846 0.37843
 C2531 C 0.76995 0.38685 0.87705
 C2532 C 0.75552 0.40497 0.85762
 C2533 C 0.73250 0.41450 0.86706
 C2534 C 0.72586 0.40537 0.89519
 C2535 C 0.72672 0.37519 0.89304
 C2536 C 0.74971 0.36554 0.88364
 C2537 C 0.77285 0.40306 0.90224
 C2538 C 0.74990 0.41267 0.91167
 H2539 H 0.76096 0.40791 0.83731
 H2540 H 0.71915 0.42497 0.85430
 H2541 H 0.71025 0.36250 0.89732
 H2542 H 0.75276 0.34475 0.88016
 H2543 H 0.79145 0.40676 0.91178
 H2544 H 0.74893 0.42457 0.92931
 C2545 C 0.72815 0.87920 1.10988
 C2546 C 0.74053 0.86039 1.08974
 C2547 C 0.76376 0.86897 1.08002
 C2548 C 0.77261 0.89581 1.09102
 C2549 C 0.74942 0.91432 1.08595
 C2550 C 0.72626 0.90567 1.09575
 C2551 C 0.74944 0.88288 1.13078
 C2552 C 0.77265 0.89145 1.12096
 H2553 H 0.73334 0.84098 1.08509
 H2554 H 0.77561 0.85618 1.06791
 H2555 H 0.75109 0.93269 1.07532
 H2556 H 0.70818 0.91658 1.09352
 H2557 H 0.74672 0.87833 1.15139
 H2558 H 0.78974 0.89403 1.13329
 C2559 C 0.72476 0.38439 0.60609
 C2560 C 0.73026 0.37396 0.57833
 C2561 C 0.75344 0.38228 0.56817
 C2562 C 0.76925 0.40025 0.58679
 C2563 C 0.74996 0.42262 0.59320
 C2564 C 0.72675 0.41435 0.60330
 C2565 C 0.74851 0.37631 0.62247
 C2566 C 0.77168 0.38455 0.61241
 H2567 H 0.71631 0.36299 0.56668
 H2568 H 0.75827 0.37843 0.54785
 H2569 H 0.75385 0.44316 0.58924
 H2570 H 0.71098 0.42783 0.60789
 H2571 H 0.74717 0.36496 0.64042
 H2572 H 0.79021 0.38018 0.62182
 C2573 C 0.22438 0.88416 0.60422
 C2574 C 0.22668 0.91409 0.60140
 C2575 C 0.25013 0.92214 0.59172
 C2576 C 0.26935 0.89960 0.58571
 C2577 C 0.27118 0.88393 0.61140
 C2578 C 0.24776 0.87591 0.62105
 C2579 C 0.23030 0.87362 0.57657
 C2580 C 0.25373 0.88173 0.56683
 H2581 H 0.21094 0.92770 0.60574
 H2582 H 0.25428 0.94265 0.58781
 H2583 H 0.28950 0.87939 0.62114
 H2584 H 0.24600 0.86458 0.63897
 H2585 H 0.21647 0.86284 0.56461
 H2586 H 0.25886 0.87786 0.54660
 C2587 C 0.22358 0.38459 1.10455
 C2588 C 0.22616 0.41459 1.10215
 C2589 C 0.24971 0.42258 1.09265
 C2590 C 0.26874 0.39997 1.08633
 C2591 C 0.27041 0.38388 1.11176
 C2592 C 0.24692 0.37588 1.12125
 C2593 C 0.22948 0.37452 1.07667
 C2594 C 0.25301 0.38257 1.06713
 H2595 H 0.21052 0.42833 1.10646
 H2596 H 0.25400 0.44309 1.08896
 H2597 H 0.28868 0.37906 1.12145
 H2598 H 0.24510 0.36428 1.13900
 H2599 H 0.21554 0.36426 1.06436
 H2600 H 0.25812 0.37912 1.04681
 C2601 C 0.72497 1.11499 0.89170
 C2602 C 0.73000 1.12364 0.92022
 C2603 C 0.75348 1.11556 0.92986
 C2604 C 0.77005 1.09955 0.91016
 C2605 C 0.75167 1.07694 0.90221
 C2606 C 0.72817 1.08495 0.89257
 C2607 C 0.74848 1.12503 0.87604
 C2608 C 0.77193 1.11699 0.88565
 H2609 H 0.71555 1.13303 0.93266
 H2610 H 0.75813 1.11804 0.95044
 H2611 H 0.75625 1.05634 0.90510
 H2612 H 0.71290 1.07113 0.88738
 H2613 H 0.74679 1.13750 0.85887
 H2614 H 0.79030 1.12265 0.87665
 C2615 C 0.72531 0.61398 0.39192
 C2616 C 0.74871 0.62410 0.37618
 C2617 C 0.77220 0.61603 0.38565
 C2618 C 0.77042 0.59848 0.41010
 C2619 C 0.75392 0.61442 0.42993
 C2620 C 0.73042 0.62256 0.42037
 C2621 C 0.72849 0.58398 0.39257
 C2622 C 0.75201 0.57590 0.40210
 H2623 H 0.74690 0.63664 0.35909
 H2624 H 0.79055 0.62173 0.37661
 H2625 H 0.75867 0.61693 0.45048
 H2626 H 0.71605 0.63216 0.43273
 H2627 H 0.71321 0.57025 0.38720
 H2628 H 0.75661 0.55529 0.40480
 C2629 C 0.22494 1.11435 0.39180
 C2630 C 0.22995 1.12289 0.42035
 C2631 C 0.25336 1.11465 0.43003
 C2632 C 0.26989 1.09859 0.41033
 C2633 C 0.25141 1.07611 0.40228
 C2634 C 0.22797 1.08428 0.39261
 C2635 C 0.24855 1.12428 0.37622
 C2636 C 0.27193 1.11608 0.38586
 H2637 H 0.21553 1.13234 0.43277
 H2638 H 0.25797 1.11704 0.45063
 H2639 H 0.25584 1.05548 0.40515
 H2640 H 0.21263 1.07056 0.38737
 H2641 H 0.24697 1.13678 0.35906
 H2642 H 0.29036 1.12163 0.37691
 C2643 C 0.22471 0.61467 0.89270
 C2644 C 0.22974 0.62304 0.92129
 C2645 C 0.25318 0.61475 0.93088
 C2646 C 0.26971 0.59886 0.91104
 C2647 C 0.25126 0.57640 0.90287
 C2648 C 0.22780 0.58459 0.89330
 C2649 C 0.24828 0.62475 0.87715
 C2650 C 0.27169 0.61652 0.88670
 H2651 H 0.21532 0.63242 0.93377
 H2652 H 0.25782 0.61702 0.95149
 H2653 H 0.25573 0.55576 0.90561
 H2654 H 0.21246 0.57089 0.88803
 H2655 H 0.24666 0.63740 0.86011
 H2656 H 0.29010 0.62218 0.87778
 C2657 C 1.10815 1.27286 1.11895
 C2658 C 1.12617 1.24995 1.12612
 C2659 C 1.11688 1.22611 1.11868
 C2660 C 1.09031 1.22708 1.10462
 C2661 C 1.07213 1.24211 1.12362
 C2662 C 1.08147 1.26595 1.13114
 C2663 C 1.10364 1.27039 1.08927
 C2664 C 1.09426 1.24655 1.08180
 H2665 H 1.14462 1.25231 1.13634
 H2666 H 1.12745 1.20806 1.12259
 H2667 H 1.05244 1.23625 1.12873
 H2668 H 1.06959 1.27934 1.14257
 H2669 H 1.10681 1.28626 1.07546
 H2670 H 1.08936 1.24221 1.06154
 C2671 C 1.10766 0.77234 0.61895
 C2672 C 1.12586 0.74956 0.62611
 C2673 C 1.11677 0.72566 0.61862
 C2674 C 1.09021 0.72644 0.60454
 C2675 C 1.07189 0.74130 0.62356
 C2676 C 1.08104 0.76521 0.63113
 C2677 C 1.10319 0.76987 0.58927
 C2678 C 1.09402 0.74596 0.58175
 H2679 H 1.14427 0.75205 0.63637
 H2680 H 1.12748 0.70769 0.62252
 H2681 H 1.05225 0.73529 0.62864
 H2682 H 1.06907 0.77849 0.64259
 H2683 H 1.10622 0.78578 0.57548
 H2684 H 1.08915 0.74161 0.56149
 C2685 C 0.61245 1.26880 0.62566
 C2686 C 0.59855 1.26950 0.59906
 C2687 C 0.58913 1.24583 0.59121
 C2688 C 0.59441 1.22331 0.61057
 C2689 C 0.62421 1.22385 0.61509
 C2690 C 0.63361 1.24757 0.62290
 C2691 C 0.59245 1.25681 0.64477
 C2692 C 0.58309 1.23308 0.63697
 H2693 H 0.59617 1.28720 0.58747
 H2694 H 0.57867 1.24335 0.57286
 H2695 H 0.63676 1.20679 0.61300
 H2696 H 0.65410 1.25075 0.62738
 H2697 H 0.58765 1.26472 0.66389
 H2698 H 0.57095 1.22167 0.65006
 C2699 C 0.60730 0.77176 1.12127
 C2700 C 0.60324 0.76950 1.09152
 C2701 C 0.59395 0.74574 1.08371
 C2702 C 0.58963 0.72612 1.10632
 C2703 C 0.61597 0.72499 1.12078
 C2704 C 0.62517 0.74875 1.12856
 C2705 C 0.58047 0.76484 1.13305
 C2706 C 0.57119 0.74106 1.12518
 H2707 H 0.60667 0.78546 1.07787
 H2708 H 0.58935 0.74156 1.06335
 H2709 H 0.62642 0.70689 1.12475
 H2710 H 0.64343 0.75098 1.13914
 H2711 H 0.56854 0.77808 1.14460
 H2712 H 0.55146 0.73514 1.13006
 C2713 C 0.88628 1.27734 0.89497
 C2714 C 0.87897 1.25284 0.87924
 C2715 C 0.88811 1.23015 0.88976
 C2716 C 0.90385 1.23378 0.91517
 C2717 C 0.92537 1.25376 0.90814
 C2718 C 0.91619 1.27647 0.89752
 C2719 C 0.87635 1.27215 0.92299
 C2720 C 0.88558 1.24943 0.93359
 H2721 H 0.86745 1.25333 0.86138
 H2722 H 0.88436 1.21118 0.88084
 H2723 H 0.94599 1.25076 0.91214
 H2724 H 0.92895 1.29267 0.89240
 H2725 H 0.86512 1.28605 0.93451
 H2726 H 0.88221 1.24483 0.95406
 C2727 C 0.88722 0.77677 0.39473
 C2728 C 0.91715 0.77560 0.39682
 C2729 C 0.92628 0.75276 0.40720
 C2730 C 0.90467 0.73295 0.41447
 C2731 C 0.88685 0.74869 0.43323
 C2732 C 0.87766 0.77152 0.42289
 C2733 C 0.87945 0.75241 0.37900
 C2734 C 0.88852 0.72959 0.38928
 H2735 H 0.92998 0.79169 0.39153
 H2736 H 0.94692 0.74956 0.41089
 H2737 H 0.88380 0.74404 0.45374
 H2738 H 0.86686 0.78546 0.43474
 H2739 H 0.86768 0.75310 0.36131
 H2740 H 0.88448 0.71069 0.38033
 C2741 C 0.38620 1.27688 0.39658
 C2742 C 0.37698 1.27185 0.42490
 C2743 C 0.38636 1.24911 0.43532
 C2744 C 0.40399 1.23327 0.41648
 C2745 C 0.38754 1.22964 0.39154
 C2746 C 0.37827 1.25234 0.38118
 C2747 C 0.41614 1.27579 0.39828
 C2748 C 0.42546 1.25307 0.40877
 H2749 H 0.36617 1.28576 0.43677
 H2750 H 0.38348 1.24451 0.45587
 H2751 H 0.38341 1.21066 0.38281
 H2752 H 0.36624 1.25282 0.36366
 H2753 H 0.42884 1.29186 0.39263
 H2754 H 0.44616 1.24999 0.41224
 C2755 C 0.38603 0.77729 0.89703
 C2756 C 0.41595 0.77637 0.89941
 C2757 C 0.42518 0.75356 0.90979
 C2758 C 0.40368 0.73354 0.91678
 C2759 C 0.38553 0.74906 0.93542
 C2760 C 0.37623 0.77185 0.92507
 C2761 C 0.37862 0.75291 0.88114
 C2762 C 0.38781 0.73013 0.89142
 H2763 H 0.42868 0.79257 0.89425
 H2764 H 0.44582 0.75051 0.91362
 H2765 H 0.38231 0.74430 0.95588
 H2766 H 0.36516 0.78562 0.93686
 H2767 H 0.36703 0.75356 0.86333
 H2768 H 0.38403 0.71124 0.88235
 C2769 C 1.11030 0.72808 0.88072
 C2770 C 1.08310 0.73481 0.86963
 C2771 C 1.07384 0.75857 0.87758
 C2772 C 1.09262 0.77372 0.89583
 C2773 C 1.09764 0.75425 0.91846
 C2774 C 1.10693 0.73048 0.91056
 C2775 C 1.12782 0.75113 0.87288
 C2776 C 1.11861 0.77489 0.88074
 H2777 H 1.07086 0.72132 0.85876
 H2778 H 1.05387 0.76427 0.87341
 H2779 H 1.09338 0.75847 0.93888
 H2780 H 1.11070 0.71459 0.92421
 H2781 H 1.14588 0.74891 0.86195
 H2782 H 1.12887 0.79303 0.87648
 C2783 C 1.11044 0.22752 0.38030
 C2784 C 1.10745 0.22995 0.41018
 C2785 C 1.09822 0.25372 0.41817
 C2786 C 1.09288 0.27314 0.39558
 C2787 C 1.11866 0.27435 0.38015
 C2788 C 1.12781 0.25060 0.37220
 C2789 C 1.08308 0.23418 0.36956
 C2790 C 1.07388 0.25792 0.37760
 H2791 H 1.11140 0.21408 0.42379
 H2792 H 1.09420 0.25794 0.43864
 H2793 H 1.12881 0.29250 0.37571
 H2794 H 1.14572 0.24840 0.36101
 H2795 H 1.07074 0.22064 0.35886
 H2796 H 1.05385 0.26359 0.37369
 C2797 C 0.60926 0.72716 0.38082
 C2798 C 0.58192 0.73400 0.37019
 C2799 C 0.57299 0.75788 0.37815
 C2800 C 0.59222 0.77304 0.39593
 C2801 C 0.59750 0.75370 0.41860
 C2802 C 0.60646 0.72980 0.41071
 C2803 C 0.62681 0.75002 0.37249
 C2804 C 0.61793 0.77391 0.38035
 H2805 H 0.56940 0.72052 0.35963
 H2806 H 0.55298 0.76371 0.37433
 H2807 H 0.59362 0.75808 0.43907
 H2808 H 0.61033 0.71397 0.42439
 H2809 H 0.64465 0.74758 0.36124
 H2810 H 0.62825 0.79193 0.37579
 C2811 C 0.60994 0.22748 0.88062
 C2812 C 0.58268 0.23430 0.86974
 C2813 C 0.57348 0.25799 0.87795
 C2814 C 0.59237 0.27299 0.89622
 C2815 C 0.59750 0.25334 0.91866
 C2816 C 0.60673 0.22963 0.91051
 C2817 C 0.62742 0.25059 0.87288
 C2818 C 0.61827 0.27429 0.88100
 H2819 H 0.57040 0.22091 0.85879
 H2820 H 0.55349 0.26375 0.87394
 H2821 H 0.59334 0.25738 0.93914
 H2822 H 0.61056 0.21363 0.92400
 H2823 H 0.64542 0.24846 0.86182
 H2824 H 0.62851 0.29246 0.87684
 C2825 C 0.88530 0.72344 1.10248
 C2826 C 0.87902 0.74759 1.11921
 C2827 C 0.88790 0.77046 1.10888
 C2828 C 0.90239 0.76736 1.08264
 C2829 C 0.92398 0.74695 1.08809
 C2830 C 0.91507 0.72405 1.09850
 C2831 C 0.87408 0.72956 1.07514
 C2832 C 0.88306 0.75244 1.06473
 H2833 H 0.86834 0.74674 1.13758
 H2834 H 0.88478 0.78921 1.11849
 H2835 H 0.94445 0.74991 1.08335
 H2836 H 0.92788 0.70762 1.10271
 H2837 H 0.86219 0.71619 1.06373
 H2838 H 0.87877 0.75753 1.04456
 C2839 C 0.88514 0.22358 0.60312
 C2840 C 0.87872 0.24795 0.61947
 C2841 C 0.88760 0.27068 0.60886
 C2842 C 0.90223 0.26723 0.58274
 C2843 C 0.92384 0.24694 0.58859
 C2844 C 0.91492 0.22418 0.59930
 C2845 C 0.87406 0.22929 0.57562
 C2846 C 0.88304 0.25204 0.56494
 H2847 H 0.86794 0.24734 0.63779
 H2848 H 0.88436 0.28956 0.61817
 H2849 H 0.94432 0.24984 0.58388
 H2850 H 0.92774 0.20783 0.60381
 H2851 H 0.86230 0.21572 0.56430
 H2852 H 0.87885 0.25689 0.54469
 C2853 C 0.38560 0.72219 0.60310
 C2854 C 0.41543 0.72285 0.59963
 C2855 C 0.42445 0.74564 0.58909
 C2856 C 0.40288 0.76590 0.58300
 C2857 C 0.38392 0.75067 0.56494
 C2858 C 0.37484 0.72788 0.57550
 C2859 C 0.37894 0.74653 0.61940
 C2860 C 0.38792 0.76929 0.60893
 H2861 H 0.42823 0.70650 0.60421
 H2862 H 0.44497 0.74859 0.58461
 H2863 H 0.37993 0.75553 0.54465
 H2864 H 0.36316 0.71427 0.56413
 H2865 H 0.36794 0.74588 0.63758
 H2866 H 0.38455 0.78815 0.61823
 C2867 C 0.38576 0.22193 1.10290
 C2868 C 0.37896 0.24619 1.11926
 C2869 C 0.38791 0.26901 1.10892
 C2870 C 0.40297 0.26577 1.08303
 C2871 C 0.42459 0.24555 1.08912
 C2872 C 0.41560 0.22270 1.09954
 C2873 C 0.37508 0.22769 1.07528
 C2874 C 0.38413 0.25055 1.06484
 H2875 H 0.36788 0.24544 1.13739
 H2876 H 0.38443 0.28784 1.11826
 H2877 H 0.44513 0.24859 1.08475
 H2878 H 0.42844 0.20638 1.10413
 H2879 H 0.36342 0.21411 1.06386
 H2880 H 0.38015 0.25552 1.04458
 C2881 C 1.11577 1.12606 0.73168
 C2882 C 1.13731 1.12031 0.75196
 C2883 C 1.12801 1.11216 0.77561
 C2884 C 1.09795 1.11037 0.77708
 C2885 C 1.08890 1.13821 0.76917
 C2886 C 1.09813 1.14637 0.74550
 C2887 C 1.09942 1.10092 0.73027
 C2888 C 1.09015 1.09277 0.75388
 H2889 H 1.15800 1.12336 0.74840
 H2890 H 1.14087 1.10838 0.79211
 H2891 H 1.07888 1.15182 0.78202
 H2892 H 1.09540 1.16644 0.73906
 H2893 H 1.09539 1.09047 0.71216
 H2894 H 1.07819 1.07532 0.75591
 C2895 C 1.11607 0.62562 0.23120
 C2896 C 1.13778 0.61952 0.25121
 C2897 C 1.12865 0.61125 0.27490
 C2898 C 1.09859 0.60972 0.27665
 C2899 C 1.08973 0.63771 0.26906
 C2900 C 1.09877 0.64598 0.24536
 C2901 C 1.09948 0.60064 0.22976
 C2902 C 1.09040 0.59238 0.25340
 H2903 H 1.15845 0.62247 0.24749
 H2904 H 1.14164 0.60728 0.29124
 H2905 H 1.07997 0.65130 0.28215
 H2906 H 1.09615 0.66612 0.23909
 H2907 H 1.09517 0.59038 0.21161
 H2908 H 1.07830 0.57502 0.25542
 C2909 C 0.60885 1.12020 0.22837
 C2910 C 0.58103 1.12994 0.23488
 C2911 C 0.57216 1.12177 0.25870
 C2912 C 0.59184 1.10467 0.27410
 C2913 C 0.59805 1.08212 0.25489
 C2914 C 0.60696 1.09020 0.23108
 C2915 C 0.62583 1.12919 0.25147
 C2916 C 0.61698 1.12109 0.27525
 H2917 H 0.56817 1.13991 0.22126
 H2918 H 0.55198 1.12490 0.26436
 H2919 H 0.59469 1.06156 0.25923
 H2920 H 0.61130 1.07655 0.21532
 H2921 H 0.64328 1.14108 0.24929
 H2922 H 0.62691 1.12607 0.29338
 C2923 C 0.60899 0.61950 0.72929
 C2924 C 0.62639 0.62803 0.75221
 C2925 C 0.61755 0.62013 0.77606
 C2926 C 0.59200 0.60434 0.77510
 C2927 C 0.57263 0.62195 0.75986
 C2928 C 0.58155 0.62995 0.73600
 C2929 C 0.60648 0.58959 0.73195
 C2930 C 0.59754 0.58167 0.75582
 H2931 H 0.64413 0.63944 0.74983
 H2932 H 0.62777 0.62482 0.79411
 H2933 H 0.55259 0.62568 0.76563
 H2934 H 0.56902 0.64050 0.72251
 H2935 H 0.61056 0.57591 0.71616
 H2936 H 0.59388 0.56118 0.76022
 C2937 C 0.88835 0.89734 0.72201
 C2938 C 0.88037 0.88169 0.74634
 C2939 C 0.88939 0.89194 0.76919
 C2940 C 0.90570 0.91702 0.76589
 C2941 C 0.92737 0.90958 0.74616
 C2942 C 0.91829 0.89923 0.72329
 C2943 C 0.87893 0.92557 0.72721
 C2944 C 0.88806 0.93588 0.75008
 H2945 H 0.86850 0.86407 0.74561
 H2946 H 0.88521 0.88303 0.78806
 H2947 H 0.94802 0.91313 0.74944
 H2948 H 0.93117 0.89385 0.70724
 H2949 H 0.86823 0.93745 0.71323
 H2950 H 0.88510 0.95642 0.75472
 C2951 C 0.88786 0.39597 0.22186
 C2952 C 0.87877 0.38144 0.24654
 C2953 C 0.88817 0.39172 0.26922
 C2954 C 0.90588 0.41573 0.26548
 C2955 C 0.92729 0.40665 0.24616
 C2956 C 0.91789 0.39628 0.22344
 C2957 C 0.88003 0.42488 0.22631
 C2958 C 0.88950 0.43518 0.24907
 H2959 H 0.86589 0.36454 0.24618
 H2960 H 0.88329 0.38355 0.28826
 H2961 H 0.94807 0.40935 0.24943
 H2962 H 0.93064 0.39002 0.20761
 H2963 H 0.87029 0.43715 0.21196
 H2964 H 0.88765 0.45593 0.25334
 C2965 C 0.38740 0.89581 0.22236
 C2966 C 0.41741 0.89744 0.22358
 C2967 C 0.42663 0.90786 0.24636
 C2968 C 0.40510 0.91572 0.26606
 C2969 C 0.38767 0.93465 0.25014
 C2970 C 0.37838 0.92428 0.22735
 C2971 C 0.37929 0.88051 0.24690
 C2972 C 0.38850 0.89087 0.26962
 H2973 H 0.43025 0.89196 0.20753
 H2974 H 0.44732 0.91133 0.24950
 H2975 H 0.38505 0.95528 0.25461
 H2976 H 0.36802 0.93633 0.21325
 H2977 H 0.36719 0.86304 0.24641
 H2978 H 0.38425 0.88220 0.28859
 C2979 C 0.38753 0.39563 0.72358
 C2980 C 0.41747 0.39776 0.72446
 C2981 C 0.42674 0.40841 0.74712
 C2982 C 0.40527 0.41588 0.76705
 C2983 C 0.38729 0.43444 0.75130
 C2984 C 0.37795 0.42384 0.72865
 C2985 C 0.37997 0.38016 0.74816
 C2986 C 0.38920 0.39070 0.77080
 H2987 H 0.43018 0.39232 0.70831
 H2988 H 0.44741 0.41215 0.75010
 H2989 H 0.38423 0.45500 0.75579
 H2990 H 0.36700 0.43552 0.71471
 H2991 H 0.36822 0.36246 0.74776
 H2992 H 0.38530 0.38196 0.78981
 C2993 C 1.10796 0.87957 1.27175
 C2994 C 1.10466 0.90948 1.26957
 C2995 C 1.09533 0.91757 1.24592
 C2996 C 1.09016 0.89511 1.22632
 C2997 C 1.11604 0.87986 1.22486
 C2998 C 1.12530 0.87175 1.24847
 C2999 C 1.08063 0.86867 1.26509
 C3000 C 1.07134 0.87684 1.24143
 H3001 H 1.10845 0.92304 1.28553
 H3002 H 1.09110 0.93804 1.24188
 H3003 H 1.12616 0.87561 1.20663
 H3004 H 1.14329 0.86061 1.25041
 H3005 H 1.06829 0.85779 1.27848
 H3006 H 1.05134 0.87280 1.23576
 C3007 C 1.11180 0.37534 0.76868
 C3008 C 1.09874 0.40242 0.76932
 C3009 C 1.08924 0.41035 0.74572
 C3010 C 1.09357 0.39062 0.72330
 C3011 C 1.12319 0.38511 0.72343
 C3012 C 1.13271 0.37713 0.74704
 C3013 C 1.09102 0.35676 0.75708
 C3014 C 1.08156 0.36470 0.73344
 H3015 H 1.09694 0.41425 0.78693
 H3016 H 1.07929 0.42900 0.74323
 H3017 H 1.13551 0.38656 0.70616
 H3018 H 1.15307 0.37182 0.74982
 H3019 H 1.08591 0.33773 0.76497
 H3020 H 1.06892 0.35184 0.72232
 C3021 C 0.60722 0.88075 0.77274
 C3022 C 0.60251 0.91042 0.77049
 C3023 C 0.59322 0.91802 0.74665
 C3024 C 0.58953 0.89531 0.72698
 C3025 C 0.61619 0.88140 0.72606
 C3026 C 0.62540 0.87383 0.74987
 C3027 C 0.58067 0.86845 0.76559
 C3028 C 0.57139 0.87610 0.74176
 H3029 H 0.60544 0.92413 0.78651
 H3030 H 0.58814 0.93827 0.74246
 H3031 H 0.62687 0.87765 0.70804
 H3032 H 0.64389 0.86367 0.75226
 H3033 H 0.56881 0.85684 0.77881
 H3034 H 0.55177 0.87093 0.73574
 C3035 C 0.60740 0.38025 1.27332
 C3036 C 0.62501 0.37253 1.25023
 C3037 C 0.61575 0.38025 1.22649
 C3038 C 0.58960 0.39508 1.22764
 C3039 C 0.57100 0.37665 1.24279
 C3040 C 0.58027 0.36887 1.26659
 C3041 C 0.60361 0.41009 1.27086
 C3042 C 0.59429 0.41780 1.24707
 H3043 H 0.64318 0.36174 1.25240
 H3044 H 0.62605 0.37601 1.20835
 H3045 H 0.55108 0.37229 1.23709
 H3046 H 0.56798 0.35807 1.28010
 H3047 H 0.60704 0.42386 1.28672
 H3048 H 0.58974 0.43816 1.24282
 C3049 C 0.88593 1.10258 1.27734
 C3050 C 0.91574 1.09914 1.27635
 C3051 C 0.92460 1.08886 1.25335
 C3052 C 0.90287 1.08302 1.23321
 C3053 C 0.88407 1.06476 1.24835
 C3054 C 0.87515 1.07502 1.27135
 C3055 C 0.87905 1.11917 1.25328
 C3056 C 0.88786 1.10899 1.23031
 H3057 H 0.92866 1.10357 1.29264
 H3058 H 0.94510 1.08442 1.25018
 H3059 H 0.88011 1.04452 1.24324
 H3060 H 0.86365 1.06339 1.28487
 H3061 H 0.86802 1.13734 1.25427
 H3062 H 0.88433 1.11851 1.21160
 C3063 C 0.88471 0.60359 0.77608
 C3064 C 0.91451 0.59990 0.77539
 C3065 C 0.92348 0.58937 0.75255
 C3066 C 0.90190 0.58355 0.73225
 C3067 C 0.88279 0.56558 0.74735
 C3068 C 0.87375 0.57609 0.77018
 C3069 C 0.87821 0.62007 0.75184
 C3070 C 0.88714 0.60963 0.72902
 H3071 H 0.92732 0.60438 0.79175
 H3072 H 0.94398 0.58477 0.74957
 H3073 H 0.87869 0.54534 0.74236
 H3074 H 0.86202 0.56465 0.78366
 H3075 H 0.86735 0.63835 0.75259
 H3076 H 0.88388 0.61905 0.71021
 C3077 C 0.38483 1.10287 0.77656
 C3078 C 0.41455 1.09876 0.77577
 C3079 C 0.42331 1.08816 0.75288
 C3080 C 0.40159 1.08271 0.73262
 C3081 C 0.38227 1.06496 0.74771
 C3082 C 0.37345 1.07553 0.77062
 C3083 C 0.37846 1.11948 0.75237
 C3084 C 0.38717 1.10899 0.72950
 H3085 H 0.42747 1.10304 0.79209
 H3086 H 0.44374 1.08329 0.74983
 H3087 H 0.37776 1.04484 0.74259
 H3088 H 0.36151 1.06427 0.78406
 H3089 H 0.36778 1.13787 0.75319
 H3090 H 0.38391 1.11847 0.71073
 C3091 C 0.38564 0.60274 1.27781
 C3092 C 0.41545 0.59895 1.27654
 C3093 C 0.42395 0.58846 1.25351
 C3094 C 0.40198 0.58271 1.23360
 C3095 C 0.38318 0.56470 1.24901
 C3096 C 0.37462 0.57515 1.27208
 C3097 C 0.37867 0.61921 1.25366
 C3098 C 0.38717 0.60879 1.23069
 H3099 H 0.42861 0.60316 1.29269
 H3100 H 0.44436 0.58369 1.25019
 H3101 H 0.37903 0.54447 1.24404
 H3102 H 0.36336 0.56357 1.28585
 H3103 H 0.36779 0.63748 1.25459
 H3104 H 0.38351 0.61820 1.21195
 C3105 C 1.11407 1.27747 0.89655
 C3106 C 1.08426 1.27677 0.90000
 C3107 C 1.07526 1.25401 0.91062
 C3108 C 1.09686 1.23378 0.91677
 C3109 C 1.11182 1.23034 0.89086
 C3110 C 1.12077 1.25307 0.88033
 C3111 C 1.12484 1.27184 0.92418
 C3112 C 1.11579 1.24906 0.93479
 H3113 H 1.07144 1.29308 0.89531
 H3114 H 1.05474 1.25105 0.91510
 H3115 H 1.11522 1.21145 0.88161
 H3116 H 1.13178 1.25367 0.86215
 H3117 H 1.13650 1.28545 0.93555
 H3118 H 1.11980 1.24420 0.95508
 C3119 C 1.11425 0.77671 0.39587
 C3120 C 1.08445 0.77598 0.39953
 C3121 C 1.07557 0.75320 0.41020
 C3122 C 1.09723 0.73300 0.41620
 C3123 C 1.11203 0.72960 0.39017
 C3124 C 1.12086 0.75235 0.37958
 C3125 C 1.12520 0.77109 0.42342
 C3126 C 1.11626 0.74831 0.43410
 H3127 H 1.07158 0.79229 0.39498
 H3128 H 1.05508 0.75021 0.41481
 H3129 H 1.11538 0.71072 0.38089
 H3130 H 1.13173 0.75299 0.36131
 H3131 H 1.13689 0.78476 0.43471
 H3132 H 1.12039 0.74348 0.45436
 C3133 C 0.61430 1.27681 0.39692
 C3134 C 0.58450 1.27618 0.40057
 C3135 C 0.57555 1.25344 0.41129
 C3136 C 0.59715 1.23319 0.41732
 C3137 C 0.61194 1.22970 0.39130
 C3138 C 0.62085 1.25241 0.38067
 C3139 C 0.62524 1.27120 0.42449
 C3140 C 0.61622 1.24846 0.43519
 H3141 H 0.57168 1.29250 0.39596
 H3142 H 0.55505 1.25052 0.41589
 H3143 H 0.61525 1.21079 0.38206
 H3144 H 0.63173 1.25297 0.36241
 H3145 H 0.63692 1.28481 0.43582
 H3146 H 0.62029 1.24369 0.45548
 C3147 C 0.61440 0.77722 0.89765
 C3148 C 0.58463 0.77661 0.90151
 C3149 C 0.57569 0.75379 0.91206
 C3150 C 0.59729 0.73344 0.91775
 C3151 C 0.61189 0.73016 0.89160
 C3152 C 0.62078 0.75295 0.88113
 C3153 C 0.62552 0.77131 0.92509
 C3154 C 0.61652 0.74850 0.93564
 H3155 H 0.57181 0.79301 0.89713
 H3156 H 0.55522 0.75087 0.91678
 H3157 H 0.61507 0.71133 0.88214
 H3158 H 0.63152 0.75367 0.86279
 H3159 H 0.63731 0.78480 0.93647
 H3160 H 0.62071 0.74355 0.95586
 C3161 C 0.88409 1.26834 1.12544
 C3162 C 0.86268 1.24803 1.11933
 C3163 C 0.87217 1.22447 1.11109
 C3164 C 0.90226 1.22311 1.10957
 C3165 C 0.91015 1.24645 1.09223
 C3166 C 0.90070 1.26999 1.10048
 C3167 C 0.90154 1.25443 1.14581
 C3168 C 0.91098 1.23085 1.13755
 H3169 H 0.84195 1.25147 1.12227
 H3170 H 0.85943 1.20794 1.10709
 H3171 H 0.92234 1.24459 1.07490
 H3172 H 0.90477 1.28818 1.09023
 H3173 H 0.90404 1.26079 1.16594
 H3174 H 0.92095 1.21795 1.15114
 C3175 C 0.89152 0.77249 0.61792
 C3176 C 0.91875 0.76563 0.62884
 C3177 C 0.92779 0.74178 0.62089
 C3178 C 0.90878 0.72669 0.60283
 C3179 C 0.88289 0.72573 0.61810
 C3180 C 0.87391 0.74958 0.62595
 C3181 C 0.89467 0.76998 0.58806
 C3182 C 0.90374 0.74611 0.58018
 H3183 H 0.93113 0.77907 0.63961
 H3184 H 0.94775 0.73593 0.62494
 H3185 H 0.87254 0.70768 0.62249
 H3186 H 0.85593 0.75196 0.63701
 H3187 H 0.89092 0.78585 0.57439
 H3188 H 0.90785 0.74181 0.55974
 C3189 C 0.39058 1.27217 0.61932
 C3190 C 0.41820 1.26551 0.62947
 C3191 C 0.42711 1.24163 0.62147
 C3192 C 0.40767 1.22630 0.60408
 C3193 C 0.38223 1.22533 0.62007
 C3194 C 0.37333 1.24918 0.62801
 C3195 C 0.39298 1.26941 0.58936
 C3196 C 0.40193 1.24552 0.58143
 H3197 H 0.43097 1.27915 0.63954
 H3198 H 0.44723 1.23594 0.62487
 H3199 H 0.37209 1.20726 0.62485
 H3200 H 0.35564 1.25150 0.63954
 H3201 H 0.38900 1.28517 0.57562
 H3202 H 0.40562 1.24112 0.56093
 C3203 C 0.39041 0.77264 1.11977
 C3204 C 0.39276 0.76986 1.08980
 C3205 C 0.40167 0.74596 1.08187
 C3206 C 0.40743 0.72675 1.10452
 C3207 C 0.42692 0.74206 1.12187
 C3208 C 0.41805 0.76596 1.12987
 C3209 C 0.37316 0.74967 1.12851
 C3210 C 0.38202 0.72581 1.12057
 H3211 H 0.38878 0.78563 1.07607
 H3212 H 0.40535 0.74156 1.06137
 H3213 H 0.44703 0.73633 1.12524
 H3214 H 0.43086 0.77958 1.13991
 H3215 H 0.35552 0.75201 1.14011
 H3216 H 0.37190 0.70775 1.12541
 C3217 C 0.89139 0.72851 0.87992
 C3218 C 0.91823 0.73533 0.86809
 C3219 C 0.92757 0.75912 0.87580
 C3220 C 0.90919 0.77419 0.89462
 C3221 C 0.88281 0.77528 0.88022
 C3222 C 0.87354 0.75150 0.87259
 C3223 C 0.89554 0.73089 0.90967
 C3224 C 0.90489 0.75468 0.91733
 H3225 H 0.93018 0.72191 0.85677
 H3226 H 0.94735 0.76490 0.87098
 H3227 H 0.87236 0.79339 0.87622
 H3228 H 0.85522 0.74923 0.86211
 H3229 H 0.89217 0.71499 0.92340
 H3230 H 0.90955 0.75895 0.93766
 C3231 C 0.89210 0.22750 0.38080
 C3232 C 0.89631 0.23016 0.41050
 C3233 C 0.90554 0.25409 0.41793
 C3234 C 0.90967 0.27342 0.39502
 C3235 C 0.92808 0.25831 0.37629
 C3236 C 0.91887 0.23440 0.36883
 C3237 C 0.87409 0.25032 0.37331
 C3238 C 0.88324 0.27422 0.38069
 H3239 H 0.89307 0.21437 0.42438
 H3240 H 0.91024 0.25856 0.43820
 H3241 H 0.94781 0.26417 0.37136
 H3242 H 0.93090 0.22096 0.35761
 H3243 H 0.85574 0.24784 0.36293
 H3244 H 0.87265 0.29222 0.37658
 C3245 C 0.39309 0.72692 0.37894
 C3246 C 0.39679 0.72926 0.40878
 C3247 C 0.40597 0.75303 0.41666
 C3248 C 0.41062 0.77260 0.39409
 C3249 C 0.42934 0.75761 0.37556
 C3250 C 0.42019 0.73381 0.36759
 C3251 C 0.37540 0.75001 0.37133
 C3252 C 0.38452 0.77374 0.37924
 H3253 H 0.39334 0.71331 0.42244
 H3254 H 0.41041 0.75720 0.43706
 H3255 H 0.44920 0.76347 0.37116
 H3256 H 0.43250 0.72051 0.35652
 H3257 H 0.35730 0.74785 0.36044
 H3258 H 0.37416 0.79187 0.37508
 C3259 C 0.38863 0.23039 0.87527
 C3260 C 0.40895 0.24231 0.85638
 C3261 C 0.41826 0.26603 0.86429
 C3262 C 0.40658 0.27590 0.89050
 C3263 C 0.37688 0.27547 0.88554
 C3264 C 0.36751 0.25179 0.87760
 C3265 C 0.40218 0.22976 0.90208
 C3266 C 0.41153 0.25343 0.90999
 H3267 H 0.41386 0.23455 0.83722
 H3268 H 0.43051 0.27741 0.85128
 H3269 H 0.36438 0.29259 0.88733
 H3270 H 0.34709 0.24880 0.87268
 H3271 H 0.40443 0.21210 0.91376
 H3272 H 0.42178 0.25593 0.92846
 C3273 C 1.11341 0.72305 1.10398
 C3274 C 1.12194 0.72784 1.07532
 C3275 C 1.11264 0.75068 1.06505
 C3276 C 1.09570 0.76685 1.08423
 C3277 C 1.07417 0.74736 1.09255
 C3278 C 1.08341 0.72457 1.10292
 C3279 C 1.12203 0.74763 1.11900
 C3280 C 1.11280 0.77039 1.10873
 H3281 H 1.13199 0.71367 1.06309
 H3282 H 1.11498 0.75515 1.04439
 H3283 H 1.05344 0.75063 1.08940
 H3284 H 1.07058 0.70867 1.10876
 H3285 H 1.13450 0.74714 1.13622
 H3286 H 1.11739 0.78936 1.11722
 C3287 C 1.11368 0.22290 0.60408
 C3288 C 1.12240 0.22762 0.57547
 C3289 C 1.11303 0.25036 0.56502
 C3290 C 1.09585 0.26650 0.58401
 C3291 C 1.07437 0.24692 0.59225
 C3292 C 1.08367 0.22422 0.60279
 C3293 C 1.12204 0.24759 0.61906
 C3294 C 1.11274 0.27025 0.60863
 H3295 H 1.13263 0.21347 0.56337
 H3296 H 1.11549 0.25475 0.54437
 H3297 H 1.05365 0.25004 0.58893
 H3298 H 1.07090 0.20827 0.60859
 H3299 H 1.13439 0.24725 0.63637
 H3300 H 1.11716 0.28929 0.61707
 C3301 C 0.61228 0.72217 0.60327
 C3302 C 0.58241 0.72340 0.60054
 C3303 C 0.57354 0.74633 0.59012
 C3304 C 0.59533 0.76616 0.58347
 C3305 C 0.61093 0.76932 0.60903
 C3306 C 0.61975 0.74641 0.61934
 C3307 C 0.62246 0.72760 0.57538
 C3308 C 0.61355 0.75055 0.56499
 H3309 H 0.56944 0.70729 0.60544
 H3310 H 0.55298 0.74961 0.58603
 H3311 H 0.61481 0.78814 0.61821
 H3312 H 0.63113 0.74558 0.63728
 H3313 H 0.63360 0.71373 0.56375
 H3314 H 0.61713 0.75538 0.54461
 C3315 C 0.61249 0.22205 1.10478
 C3316 C 0.58252 0.22344 1.10255
 C3317 C 0.57361 0.24638 1.09219
 C3318 C 0.59537 0.26605 1.08503
 C3319 C 0.61148 0.26927 1.11025
 C3320 C 0.62039 0.24639 1.12053
 C3321 C 0.62209 0.22726 1.07658
 C3322 C 0.61312 0.25022 1.06627
 H3323 H 0.56951 0.20740 1.10752
 H3324 H 0.55301 0.24967 1.08830
 H3325 H 0.61564 0.28812 1.11922
 H3326 H 0.63213 0.24566 1.13825
 H3327 H 0.63273 0.21321 1.06468
 H3328 H 0.61623 0.25491 1.04578
 C3329 C 1.27270 1.12033 0.89216
 C3330 C 1.27400 1.09322 0.90511
 C3331 C 1.25065 1.08471 0.91460
 C3332 C 1.22790 1.10400 0.91042
 C3333 C 1.23748 1.13009 0.92259
 C3334 C 1.26089 1.13848 0.91320
 C3335 C 1.25127 1.11806 0.87120
 C3336 C 1.22789 1.10964 0.88072
 H3337 H 1.29182 1.08179 0.90681
 H3338 H 1.24856 1.06594 0.92443
 H3339 H 1.22623 1.14256 0.93554
 H3340 H 1.26883 1.15722 0.91916
 H3341 H 1.25408 1.12331 0.85078
 H3342 H 1.21073 1.10786 0.86834
 C3343 C 1.27217 0.62138 0.39012
 C3344 C 1.27396 0.59486 0.40417
 C3345 C 1.25076 0.58623 0.41388
 C3346 C 1.22763 0.60481 0.40878
 C3347 C 1.23650 0.63160 0.41989
 C3348 C 1.25979 0.64016 0.41026
 C3349 C 1.25093 0.61780 0.36914
 C3350 C 1.22768 0.60925 0.37886
 H3351 H 1.29202 0.58391 0.40642
 H3352 H 1.24902 0.56784 0.42445
 H3353 H 1.22466 0.64438 0.43201
 H3354 H 1.26703 0.65953 0.41499
 H3355 H 1.25373 0.62237 0.34854
 H3356 H 1.21063 0.60669 0.36647
 C3357 C 0.77533 1.11548 0.39517
 C3358 C 0.75192 1.12383 0.37843
 C3359 C 0.72852 1.11572 0.38804
 C3360 C 0.73039 1.09986 0.41361
 C3361 C 0.74961 1.07738 0.40741
 C3362 C 0.77305 1.08551 0.39776
 C3363 C 0.76944 1.12580 0.42289
 C3364 C 0.74604 1.11759 0.43260
 H3365 H 0.75365 1.13530 0.36059
 H3366 H 0.71018 1.12031 0.37836
 H3367 H 0.74549 1.05684 0.41119
 H3368 H 0.78880 1.07194 0.39334
 H3369 H 0.78328 1.13650 0.43491
 H3370 H 0.74096 1.12128 0.45289
 C3371 C 0.77497 0.61626 0.89490
 C3372 C 0.77305 0.58629 0.89766
 C3373 C 0.74982 0.57794 0.90763
 C3374 C 0.73042 0.60023 0.91395
 C3375 C 0.74607 0.61824 0.93267
 C3376 C 0.76927 0.62665 0.92265
 C3377 C 0.75127 0.62426 0.87840
 C3378 C 0.72807 0.61594 0.88832
 H3379 H 0.78888 0.57287 0.89307
 H3380 H 0.74596 0.55737 0.91153
 H3381 H 0.74113 0.62201 0.95298
 H3382 H 0.78312 0.63758 0.93445
 H3383 H 0.75266 0.63567 0.86049
 H3384 H 0.70957 0.62030 0.87885
 C3385 C 1.27468 0.88451 1.10805
 C3386 C 1.26952 0.87563 1.07970
 C3387 C 1.24625 0.88413 1.06991
 C3388 C 1.22998 0.90069 1.08944
 C3389 C 1.22772 0.88352 1.11412
 C3390 C 1.25101 0.87510 1.12381
 C3391 C 1.27211 0.91456 1.10696
 C3392 C 1.24879 0.92299 1.09722
 H3393 H 1.28377 0.86566 1.06749
 H3394 H 1.24160 0.88150 1.04936
 H3395 H 1.20923 0.87834 1.12317
 H3396 H 1.25248 0.86278 1.14110
 H3397 H 1.28763 0.92803 1.11227
 H3398 H 1.24459 0.94365 1.09427
 C3399 C 1.27510 0.38426 0.60744
 C3400 C 1.26994 0.37551 0.57905
 C3401 C 1.24663 0.38402 0.56933
 C3402 C 1.23034 0.40043 0.58897
 C3403 C 1.22815 0.38312 0.61356
 C3404 C 1.25146 0.37471 0.62318
 C3405 C 1.27246 0.41431 0.60651
 C3406 C 1.24911 0.42274 0.59684
 H3407 H 1.28419 0.36562 0.56679
 H3408 H 1.24196 0.38149 0.54877
 H3409 H 1.20968 0.37785 0.62260
 H3410 H 1.25299 0.36230 0.64039
 H3411 H 1.28795 0.42779 0.61188
 H3412 H 1.24487 0.44340 0.59400
 C3413 C 0.77524 0.88566 0.60664
 C3414 C 0.76999 0.87711 0.57822
 C3415 C 0.74647 0.88534 0.56878
 C3416 C 0.73008 0.90128 0.58872
 C3417 C 0.72838 0.88371 0.61315
 C3418 C 0.75190 0.87557 0.62248
 C3419 C 0.77211 0.91567 0.60604
 C3420 C 0.74855 0.92382 0.59665
 H3421 H 0.78429 0.86753 0.56577
 H3422 H 0.74165 0.88291 0.54824
 H3423 H 0.71007 0.87804 0.62229
 H3424 H 0.75377 0.86301 0.63956
 H3425 H 0.78745 0.92936 0.61135
 H3426 H 0.74397 0.94444 0.59402
 C3427 C 0.77469 0.38552 1.10810
 C3428 C 0.76991 0.37741 1.07947
 C3429 C 0.74651 0.38570 1.06978
 C3430 C 0.72978 0.40130 1.08971
 C3431 C 0.72774 0.38334 1.11382
 C3432 C 0.75114 0.37511 1.12340
 C3433 C 0.77150 0.41554 1.10792
 C3434 C 0.74808 0.42375 1.09827
 H3435 H 0.78440 0.36782 1.06722
 H3436 H 0.74189 0.38341 1.04917
 H3437 H 0.70931 0.37749 1.12259
 H3438 H 0.75277 0.36231 1.14031
 H3439 H 0.78674 0.42922 1.11349
 H3440 H 0.74355 0.44440 1.09575
 C3441 C 0.72916 1.11263 1.12161
 C3442 C 0.74957 1.13392 1.11577
 C3443 C 0.77273 1.12428 1.10678
 C3444 C 0.77348 1.09412 1.10423
 C3445 C 0.76614 1.08461 1.13206
 C3446 C 0.74297 1.09414 1.14106
 C3447 C 0.72668 1.09685 1.09615
 C3448 C 0.74977 1.08721 1.08709
 H3449 H 0.74641 1.15467 1.11931
 H3450 H 0.78932 1.13694 1.10289
 H3451 H 0.77905 1.07381 1.14499
 H3452 H 0.73682 1.09077 1.16110
 H3453 H 0.70825 1.09346 1.08617
 H3454 H 0.75106 1.07557 1.06931
 C3455 C 0.72918 0.61163 0.62061
 C3456 C 0.72690 0.59563 0.59526
 C3457 C 0.75011 0.58623 0.58628
 C3458 C 0.77372 0.59357 0.60337
 C3459 C 0.77261 0.62373 0.60569
 C3460 C 0.74933 0.63314 0.61461
 C3461 C 0.74320 0.59347 0.64020
 C3462 C 0.76650 0.58418 0.63127
 H3463 H 0.70852 0.59195 0.58530
 H3464 H 0.75155 0.57448 0.56857
 H3465 H 0.78905 0.63657 0.60176
 H3466 H 0.74592 0.65387 0.61802
 H3467 H 0.73709 0.59017 0.66026
 H3468 H 0.77956 0.57365 0.64428
 C3469 C 0.22426 1.10656 0.61418
 C3470 C 0.24801 1.12212 0.62370
 C3471 C 0.27123 1.11229 0.61529
 C3472 C 0.26884 1.08767 0.59803
 C3473 C 0.25245 1.06821 0.61449
 C3474 C 0.22922 1.07816 0.62298
 C3475 C 0.22683 1.10553 0.58413
 C3476 C 0.25010 1.09563 0.57572
 H3477 H 0.24662 1.13937 0.63610
 H3478 H 0.28977 1.12117 0.62057
 H3479 H 0.25706 1.04765 0.61720
 H3480 H 0.21492 1.06617 0.63310
 H3481 H 0.21133 1.11085 0.57063
 H3482 H 0.25427 1.09262 0.55506
 C3483 C 0.22386 0.60642 1.11341
 C3484 C 0.24751 0.62187 1.12334
 C3485 C 0.27082 0.61209 1.11513
 C3486 C 0.26861 0.58763 1.09764
 C3487 C 0.25202 0.56804 1.11372
 C3488 C 0.22870 0.57793 1.12200
 C3489 C 0.22678 0.60566 1.08339
 C3490 C 0.25013 0.59579 1.07517
 H3491 H 0.24599 0.63904 1.13585
 H3492 H 0.28930 0.62093 1.12069
 H3493 H 0.25662 0.54745 1.11632
 H3494 H 0.21427 0.56587 1.13185
 H3495 H 0.21143 0.61110 1.06975
 H3496 H 0.25452 0.59293 1.05454
 C3497 C 0.72553 0.89431 0.88316
 C3498 C 0.73153 0.92185 0.87244
 C3499 C 0.75494 0.93160 0.88054
 C3500 C 0.77050 0.91284 0.89860
 C3501 C 0.75124 0.90708 0.92112
 C3502 C 0.72779 0.89739 0.91308
 C3503 C 0.74891 0.87734 0.87512
 C3504 C 0.77234 0.88700 0.88313
 H3505 H 0.71774 0.93378 0.86155
 H3506 H 0.76007 0.95180 0.87654
 H3507 H 0.75537 0.91112 0.94160
 H3508 H 0.71203 0.89319 0.92668
 H3509 H 0.74716 0.85933 0.86391
 H3510 H 0.79066 0.87717 0.87873
 C3511 C 0.72532 0.39392 0.38241
 C3512 C 0.73143 0.42139 0.37160
 C3513 C 0.75485 0.43110 0.37976
 C3514 C 0.77029 0.41237 0.39794
 C3515 C 0.75093 0.40674 0.42042
 C3516 C 0.72747 0.39709 0.41232
 C3517 C 0.74868 0.37685 0.37452
 C3518 C 0.77210 0.38646 0.38258
 H3519 H 0.71772 0.43332 0.36062
 H3520 H 0.76005 0.45127 0.37569
 H3521 H 0.75500 0.41084 0.44090
 H3522 H 0.71166 0.39296 0.42588
 H3523 H 0.74691 0.35879 0.36339
 H3524 H 0.79040 0.37656 0.37828
 C3525 C 0.22970 0.88864 0.37675
 C3526 C 0.25072 0.86744 0.38053
 C3527 C 0.27404 0.87696 0.38911
 C3528 C 0.27437 0.90692 0.39336
 C3529 C 0.26570 0.91792 0.36647
 C3530 C 0.24234 0.90850 0.35789
 C3531 C 0.22798 0.90291 0.40316
 C3532 C 0.25125 0.91241 0.41182
 H3533 H 0.24774 0.84685 0.37603
 H3534 H 0.29098 0.86439 0.39175
 H3535 H 0.27776 0.92975 0.35365
 H3536 H 0.23524 0.91310 0.33843
 H3537 H 0.20992 0.90543 0.41404
 H3538 H 0.25305 0.92307 0.43016
 C3539 C 0.22912 0.38981 0.87792
 C3540 C 0.24985 0.36842 0.88217
 C3541 C 0.27324 0.37779 0.89075
 C3542 C 0.27390 0.40781 0.89456
 C3543 C 0.26554 0.41849 0.86745
 C3544 C 0.24213 0.40925 0.85885
 C3545 C 0.22739 0.40451 0.90410
 C3546 C 0.25072 0.41386 0.91277
 H3547 H 0.24665 0.34780 0.87798
 H3548 H 0.29000 0.36506 0.89367
 H3549 H 0.27781 0.43004 0.85457
 H3550 H 0.23518 0.41377 0.83932
 H3551 H 0.20929 0.40741 0.91482
 H3552 H 0.25253 0.42477 0.93097
   
