data_POSCAR
  _audit_creation_date              2014-09-24
  _audit_creation_method            'ToBaCCo'
  _symmetry_space_group_name_H-M    'P1'
  _symmetry_Int_Tables_number       1
  _symmetry_cell_setting            triclinic
  loop_
  _symmetry_equiv_pos_as_xyz
 x,y,z
_cell_length_a 38.4296
_cell_length_b 38.4303
_cell_length_c 38.4387
_cell_angle_alpha 90.001100
_cell_angle_beta 89.998900
_cell_angle_gamma 89.996300
loop_
  _atom_site_label
  _atom_site_type_symbol
  _atom_site_fract_x
  _atom_site_fract_y
  _atom_site_fract_z
N1 N 0.36023 0.36053 0.36138
 N2 N 0.36106 0.86108 -0.13992
 N3 N 0.85930 0.36074 -0.13839
 N4 N 0.86226 0.86050 0.36020
 N5 N 0.64040 0.63936 0.36138
 N6 N 0.63772 0.13926 -0.13986
 N7 N 0.13945 0.63962 -0.13869
 N8 N 0.13877 0.13919 0.35995
 N9 N 0.63966 0.36168 0.63878
 N10 N 0.63920 0.86027 1.14002
 N11 N 0.13962 0.36001 1.13861
 N12 N 0.13921 0.86115 0.63914
 N13 N 0.35977 0.63897 0.63906
 N14 N 0.36193 0.13923 1.13985
 N15 N 0.86095 0.63907 1.13847
 N16 N 0.86043 0.13935 0.64019
 N17 N 0.35965 0.36117 0.63863
 N18 N 0.36149 0.86046 0.13987
 N19 N 0.85993 0.36028 0.13845
 N20 N 0.86125 0.86149 0.63978
 N21 N 0.63991 0.63982 0.63866
 N22 N 0.63867 0.13859 0.14027
 N23 N 0.14009 0.63872 0.13827
 N24 N 0.13828 0.13970 0.64002
 N25 N 0.36017 0.63866 0.36089
 N26 N 0.36170 0.13932 0.85993
 N27 N 0.86096 0.63980 0.86095
 N28 N 0.86084 0.13938 0.36073
 N29 N 0.63995 0.36129 0.36120
 N30 N 0.63846 0.86032 0.86060
 N31 N 0.13950 0.36023 0.86160
 N32 N 0.13922 0.86070 0.36000
 O33 O 0.20614 0.96620 0.25291
 O34 O 0.25470 1.03360 0.20537
 O35 O 0.25474 0.96641 0.20552
 O36 O 0.20617 1.03396 0.25287
 O37 O 0.24609 1.03373 0.29429
 O38 O 0.29466 0.96615 0.24695
 O39 O 0.29462 1.03393 0.24680
 O40 O 0.24606 0.96654 0.29434
 Cu41 Cu 0.22633 1.00004 0.22505
 Cu42 Cu 0.27447 1.00010 0.27471
 C43 C 0.21773 0.95517 0.28179
 C44 C 0.28304 1.04495 0.21791
 C45 C 0.28306 0.95504 0.21810
 C46 C 0.21775 1.04506 0.28173
 O47 O 0.20469 0.46676 0.75484
 O48 O 0.25330 0.53304 0.70570
 O49 O 0.25218 0.46560 0.70632
 O50 O 0.20539 0.53425 0.75379
 O51 O 0.24538 0.53291 0.79512
 O52 O 0.29401 0.46686 0.74580
 O53 O 0.29329 0.53430 0.74704
 O54 O 0.24652 0.46542 0.79431
 Cu55 Cu 0.22474 0.49991 0.72608
 Cu56 Cu 0.27393 0.49986 0.77466
 C57 C 0.21740 0.45486 0.78288
 C58 C 0.28154 0.54488 0.71807
 C59 C 0.28132 0.45507 0.71770
 C60 C 0.21717 0.54479 0.78276
 O61 O 0.74649 -0.03382 0.20586
 O62 O 0.79434 0.03383 0.25386
 O63 O 0.79506 -0.03367 0.25374
 O64 O 0.74634 0.03366 0.20627
 O65 O 0.70566 0.03281 0.24695
 O66 O 0.75440 -0.03453 0.29444
 O67 O 0.75408 0.03296 0.29495
 O68 O 0.70625 -0.03467 0.24697
 Cu69 Cu 0.77465 -0.00003 0.22580
 Cu70 Cu 0.72602 -0.00084 0.27496
 C71 C 0.71813 -0.04547 0.21813
 C72 C 0.78243 0.04464 0.28268
 C73 C 0.78314 -0.04528 0.28225
 C74 C 0.71761 0.04441 0.21843
 O75 O 0.74700 0.46637 0.70614
 O76 O 0.79458 0.53429 0.75391
 O77 O 0.79444 0.46701 0.75461
 O78 O 0.74668 0.53390 0.70547
 O79 O 0.70615 0.53503 0.74628
 O80 O 0.75286 0.46671 0.79436
 O81 O 0.75372 0.53443 0.79441
 O82 O 0.70534 0.46764 0.74579
 Cu83 Cu 0.77480 0.50039 0.72594
 Cu84 Cu 0.72540 0.50096 0.77432
 C85 C 0.71791 0.45582 0.71765
 C86 C 0.78242 0.54556 0.78245
 C87 C 0.78175 0.45561 0.78286
 C88 C 0.71826 0.54567 0.71749
 O89 O 0.20612 0.53374 0.24614
 O90 O 0.25291 0.46511 0.29370
 O91 O 0.25388 0.53257 0.29438
 O92 O 0.20516 0.46627 0.24544
 O93 O 0.24692 0.46484 0.20590
 O94 O 0.29387 0.53370 0.25304
 O95 O 0.29468 0.46626 0.25416
 O96 O 0.24611 0.53232 0.20481
 Cu97 Cu 0.22538 0.49944 0.27400
 Cu98 Cu 0.27453 0.49926 0.22538
 C99 C 0.21790 0.54422 0.21714
 C100 C 0.28202 0.45452 0.28229
 C101 C 0.28212 0.54435 0.28199
 C102 C 0.21780 0.45434 0.21738
 O103 O 0.79420 0.96698 0.74643
 O104 O 0.74479 1.03300 0.79504
 O105 O 0.74594 0.96553 0.79420
 O106 O 0.79312 1.03443 0.74738
 O107 O 0.75360 1.03303 0.70559
 O108 O 0.70461 0.96669 0.75421
 O109 O 0.70527 1.03417 0.75326
 O110 O 0.75288 0.96557 0.70644
 Cu111 Cu 0.77360 0.99999 0.77490
 Cu112 Cu 0.72500 0.99984 0.72574
 C113 C 0.78191 0.95512 0.71819
 C114 C 0.71668 1.04478 0.78236
 C115 C 0.71699 0.95488 0.78244
 C116 C 0.78165 1.04496 0.71826
 O117 O 0.74757 0.53416 0.29393
 O118 O 0.79433 0.46580 0.24585
 O119 O 0.79520 0.53322 0.24543
 O120 O 0.74701 0.46647 0.29421
 O121 O 0.70607 0.46651 0.25379
 O122 O 0.75352 0.53438 0.20580
 O123 O 0.75373 0.46682 0.20512
 O124 O 0.70597 0.53375 0.25419
 Cu125 Cu 0.77516 0.49993 0.27394
 Cu126 Cu 0.72570 0.50036 0.22563
 C127 C 0.71863 0.54517 0.28245
 C128 C 0.78216 0.45507 0.21712
 C129 C 0.78260 0.54497 0.21728
 C130 C 0.71831 0.45531 0.28233
 O131 O 0.25430 -0.03291 0.79435
 O132 O 0.20552 0.03408 0.74650
 O133 O 0.20599 -0.03362 0.74656
 O134 O 0.25390 0.03448 0.79381
 O135 O 0.29470 0.03371 0.75325
 O136 O 0.24582 -0.03294 0.70505
 O137 O 0.24599 0.03431 0.70560
 O138 O 0.29403 -0.03382 0.75275
 Cu139 Cu 0.22582 0.00047 0.77442
 Cu140 Cu 0.27423 0.00036 0.72504
 C141 C 0.28249 -0.04457 0.78175
 C142 C 0.21741 0.04541 0.71787
 C143 C 0.21756 -0.04447 0.71760
 C144 C 0.28266 0.04527 0.78174
 O145 O 0.24683 0.29384 0.96654
 O146 O 0.29577 0.24573 1.03330
 O147 O 0.29511 0.24619 0.96573
 O148 O 0.24723 0.29356 1.03375
 O149 O 0.20669 0.25274 1.03365
 O150 O 0.25536 0.20461 0.96676
 O151 O 0.25490 0.20525 1.03420
 O152 O 0.20696 0.25236 0.96600
 Cu153 Cu 0.27536 0.27393 0.99985
 Cu154 Cu 0.22689 0.22461 1.00013
 C155 C 0.21852 0.28131 0.95509
 C156 C 0.28367 0.21732 1.04499
 C157 C 0.28353 0.21719 0.95501
 C158 C 0.21863 0.28139 1.04488
 O159 O 0.25256 0.70572 0.46589
 O160 O 0.20501 0.75434 0.53330
 O161 O 0.20501 0.75421 0.46609
 O162 O 0.25246 0.70576 0.53364
 O163 O 0.29384 0.74573 0.53333
 O164 O 0.24638 0.79420 0.46580
 O165 O 0.24639 0.79430 0.53357
 O166 O 0.29393 0.74571 0.46616
 Cu167 Cu 0.22464 0.72590 0.49973
 Cu168 Cu 0.27424 0.77410 0.49971
 C169 C 0.28144 0.71734 0.45484
 C170 C 0.21753 0.78268 0.54465
 C171 C 0.21753 0.78254 0.45471
 C172 C 0.28132 0.71739 0.54470
 O173 O 0.20635 0.74643 -0.03358
 O174 O 0.25421 0.79450 0.03395
 O175 O 0.25409 0.79471 -0.03385
 O176 O 0.20659 0.74609 0.03355
 O177 O 0.24784 0.70597 0.03360
 O178 O 0.29532 0.75458 -0.03381
 O179 O 0.29545 0.75438 0.03343
 O180 O 0.24758 0.70629 -0.03409
 Cu181 Cu 0.22623 0.77458 0.00005
 Cu182 Cu 0.27566 0.72620 -0.00025
 C183 C 0.21871 0.71805 -0.04501
 C184 C 0.28304 0.78272 0.04494
 C185 C 0.28286 0.78300 -0.04505
 C186 C 0.21902 0.71763 0.04473
 O187 O 0.20452 0.24596 0.46620
 O188 O 0.25252 0.29423 0.53354
 O189 O 0.25269 0.29406 0.46626
 O190 O 0.20426 0.24623 0.53358
 O191 O 0.24501 0.20562 0.53395
 O192 O 0.29321 0.25321 0.46633
 O193 O 0.29304 0.25338 0.53391
 O194 O 0.24528 0.20536 0.46626
 Cu195 Cu 0.22438 0.27422 0.49987
 Cu196 Cu 0.27322 0.22526 0.50014
 C197 C 0.21668 0.21740 0.45498
 C198 C 0.28105 0.28211 0.54491
 C199 C 0.28128 0.28188 0.45512
 C200 C 0.21635 0.21772 0.54501
 O201 O 0.74525 0.79480 0.96682
 O202 O 0.79404 0.74658 1.03360
 O203 O 0.79378 0.74719 0.96596
 O204 O 0.74594 0.79417 1.03425
 O205 O 0.70505 0.75371 1.03335
 O206 O 0.75394 0.70568 0.96650
 O207 O 0.75347 0.70577 1.03370
 O208 O 0.70552 0.75320 0.96579
 Cu209 Cu 0.77384 0.77482 1.00013
 Cu210 Cu 0.72538 0.72548 0.99986
 C211 C 0.71707 0.78222 0.95511
 C212 C 0.78209 0.71792 1.04481
 C213 C 0.78222 0.71826 0.95504
 C214 C 0.71718 0.78211 1.04505
 O215 O 0.74698 0.29455 0.46661
 O216 O 0.79481 0.24621 0.53401
 O217 O 0.79492 0.24623 0.46666
 O218 O 0.74696 0.29463 0.53388
 O219 O 0.70621 0.25402 0.53402
 O220 O 0.75395 0.20583 0.46649
 O221 O 0.75382 0.20583 0.53414
 O222 O 0.70624 0.25391 0.46643
 Cu223 Cu 0.77506 0.27448 0.50030
 Cu224 Cu 0.72594 0.22580 0.50027
 C225 C 0.71837 0.28253 0.45532
 C226 C 0.78252 0.21773 0.54532
 C227 C 0.78266 0.21774 0.45536
 C228 C 0.71832 0.28265 0.54511
 O229 O 0.75207 0.29340 0.03422
 O230 O 0.70372 0.24565 -0.03319
 O231 O 0.70442 0.24544 0.03433
 O232 O 0.75194 0.29389 -0.03319
 O233 O 0.79245 0.25304 -0.03409
 O234 O 0.74494 0.20461 0.03343
 O235 O 0.74465 0.20522 -0.03407
 O236 O 0.79302 0.25298 0.03332
 Cu237 Cu 0.72390 0.27368 0.00052
 Cu238 Cu 0.77287 0.22484 -0.00033
 C239 C 0.78091 0.28143 0.04493
 C240 C 0.71587 0.21724 -0.04486
 C241 C 0.71653 0.21670 0.04513
 C242 C 0.78040 0.28183 -0.04482
 O243 O 0.70738 0.74732 0.46566
 O244 O 0.75488 0.79505 0.53366
 O245 O 0.75564 0.79501 0.46639
 O246 O 0.70656 0.74702 0.53313
 O247 O 0.74755 0.70665 0.53430
 O248 O 0.79559 0.75360 0.46611
 O249 O 0.79555 0.75435 0.53383
 O250 O 0.74724 0.70584 0.46694
 Cu251 Cu 0.72701 0.77522 0.49970
 Cu252 Cu 0.77561 0.72602 0.50030
 C253 C 0.71904 0.71828 0.45513
 C254 C 0.78345 0.78297 0.54497
 C255 C 0.78397 0.78246 0.45503
 C256 C 0.71868 0.71864 0.54489
 O257 O 0.96529 0.25315 0.20521
 O258 O 1.03335 0.20562 0.25287
 O259 O 0.96610 0.20544 0.25344
 O260 O 1.03287 0.25360 0.20453
 O261 O 1.03384 0.29399 0.24548
 O262 O 0.96564 0.24687 0.29335
 O263 O 1.03332 0.24635 0.29350
 O264 O 0.96640 0.29467 0.24502
 Cu265 Cu 0.99941 0.22535 0.22489
 Cu266 Cu 0.99978 0.27459 0.27344
 C267 C 0.95462 0.28215 0.21683
 C268 C 1.04455 0.21773 0.28146
 C269 C 0.95468 0.21795 0.28176
 C270 C 1.04460 0.28198 0.21669
 O271 O 0.46660 0.24677 0.79347
 O272 O 0.53346 0.29541 0.74530
 O273 O 0.46572 0.29499 0.74558
 O274 O 0.53391 0.24727 0.79287
 O275 O 0.53309 0.20632 0.75247
 O276 O 0.46634 0.25503 0.70419
 O277 O 0.53364 0.25478 0.70457
 O278 O 0.46564 0.20692 0.75199
 Cu279 Cu 0.49989 0.27525 0.77339
 Cu280 Cu 0.49972 0.22667 0.72417
 C281 C 0.45498 0.21851 0.78100
 C282 C 0.54478 0.28339 0.71673
 C283 C 0.45479 0.28330 0.71670
 C284 C 0.54464 0.21843 0.78092
 O285 O -0.03461 0.29464 0.75485
 O286 O 0.03305 0.24682 0.70688
 O287 O -0.03457 0.24673 0.70696
 O288 O 0.03308 0.29458 0.75488
 O289 O 0.03294 0.25396 0.79562
 O290 O -0.03439 0.20589 0.74747
 O291 O 0.03292 0.20596 0.74738
 O292 O -0.03445 0.25403 0.79559
 Cu293 Cu -0.00077 0.27481 0.72681
 Cu294 Cu -0.00075 0.22586 0.77563
 C295 C -0.04578 0.28258 0.78347
 C296 C 0.04420 0.21813 0.71884
 C297 C -0.04567 0.21803 0.71893
 C298 C 0.04427 0.28250 0.78349
 O299 O 0.46662 0.29460 0.25483
 O300 O 0.53356 0.24610 0.20654
 O301 O 0.46623 0.24681 0.20696
 O302 O 0.53435 0.29453 0.25423
 O303 O 0.53380 0.25458 0.29562
 O304 O 0.46712 0.20578 0.24728
 O305 O 0.53459 0.20624 0.24802
 O306 O 0.46651 0.25390 0.29549
 Cu307 Cu 0.50022 0.27465 0.22656
 Cu308 Cu 0.50049 0.22602 0.27572
 C309 C 0.45531 0.28250 0.28339
 C310 C 0.54523 0.21784 0.21900
 C311 C 0.45552 0.21796 0.21887
 C312 C 0.54529 0.28288 0.28312
 O313 O 1.03349 0.79508 0.74605
 O314 O 0.96732 0.74629 0.79509
 O315 O 1.03480 0.74735 0.79435
 O316 O 0.96605 0.79449 0.74730
 O317 O 0.96728 0.75472 0.70574
 O318 O 1.03342 0.70574 0.75466
 O319 O 0.96595 0.70653 0.75354
 O320 O 1.03471 0.75346 0.70636
 Cu321 Cu 1.00043 0.77492 0.77481
 Cu322 Cu 1.00033 0.72599 0.72597
 C323 C 1.04528 0.78253 0.71789
 C324 C 0.95543 0.71815 0.78258
 C325 C 1.04530 0.71827 0.78279
 C326 C 0.95547 0.78290 0.71826
 O327 O 0.53448 0.70529 0.25449
 O328 O 0.46627 0.75254 0.20671
 O329 O 0.53394 0.75307 0.20660
 O330 O 0.46700 0.70460 0.25489
 O331 O 0.46585 0.74599 0.29483
 O332 O 0.53394 0.79370 0.24733
 O333 O 0.46670 0.79384 0.24675
 O334 O 0.53346 0.74558 0.29554
 Cu335 Cu 0.50041 0.72477 0.22657
 Cu336 Cu 0.49999 0.77386 0.27525
 C337 C 0.54522 0.71725 0.28331
 C338 C 0.45530 0.78142 0.21839
 C339 C 0.54515 0.78167 0.21870
 C340 C 0.45517 0.71703 0.28309
 O341 O -0.03361 0.79336 0.25216
 O342 O 0.03510 0.74627 0.20498
 O343 O -0.03239 0.74534 0.20418
 O344 O 0.03381 0.79419 0.25308
 O345 O 0.03511 0.75261 0.29282
 O346 O -0.03366 0.70555 0.24571
 O347 O 0.03381 0.70468 0.24471
 O348 O -0.03229 0.75357 0.29369
 Cu349 Cu 0.00073 0.77390 0.22448
 Cu350 Cu 0.00075 0.72497 0.27333
 C351 C -0.04411 0.78176 0.28122
 C352 C 0.04565 0.71722 0.21657
 C353 C -0.04425 0.71719 0.21669
 C354 C 0.04562 0.78169 0.28125
 O355 O 0.46646 0.79439 0.75324
 O356 O 0.53340 0.74611 0.70479
 O357 O 0.46562 0.74637 0.70513
 O358 O 0.53383 0.79368 0.75290
 O359 O 0.53294 0.75330 0.79387
 O360 O 0.46616 0.70504 0.74514
 O361 O 0.53349 0.70540 0.74543
 O362 O 0.46544 0.75298 0.79316
 Cu363 Cu 0.49980 0.77422 0.72488
 Cu364 Cu 0.49953 0.72506 0.77350
 C365 C 0.45477 0.78197 0.78150
 C366 C 0.54470 0.71754 0.71685
 C367 C 0.45465 0.71750 0.71684
 C368 C 0.54457 0.78172 0.78173
 C369 C 0.40998 0.33534 0.29070
 C370 C 0.37554 0.32079 0.30596
 C371 C 0.38415 0.33862 0.34070
 C372 C 0.41818 0.35344 0.32580
 C373 C 0.40341 0.30601 0.35386
 C374 C 0.39516 0.28786 0.31873
 C375 C 0.42909 0.30266 0.30363
 C376 C 0.43759 0.32051 0.33839
 H377 H 0.41298 0.34729 0.26458
 H378 H 0.34993 0.32068 0.29265
 H379 H 0.42764 0.38052 0.32919
 H380 H 0.40186 0.29304 0.37953
 H381 H 0.38599 0.26064 0.31565
 H382 H 0.46338 0.32024 0.35140
 C383 C 0.43788 0.83704 0.81967
 C384 C 0.40384 0.85298 0.80536
 C385 C 0.38459 0.84005 0.83806
 C386 C 0.41849 0.82468 0.85268
 C387 C 0.37542 0.80544 0.82024
 C388 C 0.39503 0.81798 0.78722
 C389 C 0.42884 0.80241 0.80183
 C390 C 0.40973 0.78970 0.83459
 H391 H 0.46385 0.84970 0.81929
 H392 H 0.40258 0.87868 0.79241
 H393 H 0.42815 0.82793 0.87970
 H394 H 0.34962 0.79248 0.82029
 H395 H 0.38567 0.81506 0.76007
 H396 H 0.41245 0.76352 0.84649
 C397 C -0.06346 0.32050 0.83856
 C398 C -0.08275 0.35353 0.82604
 C399 C -0.11684 0.33880 0.84087
 C400 C -0.09770 0.30609 0.85397
 C401 C -0.12548 0.32107 0.80609
 C402 C -0.09098 0.33553 0.79089
 C403 C -0.07198 0.30276 0.80376
 C404 C -0.10598 0.28804 0.81879
 H405 H -0.03769 0.32012 0.85161
 H406 H -0.07320 0.38056 0.82949
 H407 H -0.09930 0.29303 0.87960
 H408 H -0.15109 0.32111 0.79277
 H409 H -0.08792 0.34753 0.76480
 H410 H -0.11525 0.26086 0.81565
 C411 C -0.10371 0.78749 0.31745
 C412 C -0.09482 0.80587 0.35230
 C413 C -0.11422 0.83843 0.33924
 C414 C -0.12347 0.82038 0.30478
 C415 C -0.08041 0.85306 0.32367
 C416 C -0.06088 0.82017 0.33615
 C417 C -0.07001 0.80210 0.30167
 C418 C -0.08926 0.83474 0.28883
 H419 H -0.11300 0.76027 0.31472
 H420 H -0.09596 0.79307 0.37808
 H421 H -0.14931 0.82027 0.29192
 H422 H -0.07083 0.88013 0.32672
 H423 H -0.03487 0.81994 0.34871
 H424 H -0.08668 0.84649 0.26258
 C425 C 0.56295 0.67920 0.33832
 C426 C 0.58249 0.64636 0.32568
 C427 C 0.61644 0.66124 0.34069
 C428 C 0.59705 0.69375 0.35391
 C429 C 0.62507 0.67921 0.30604
 C430 C 0.59072 0.66460 0.29066
 C431 C 0.57146 0.69718 0.30364
 C432 C 0.60531 0.71205 0.31886
 H433 H 0.53712 0.67934 0.35127
 H434 H 0.57311 0.61925 0.32896
 H435 H 0.59847 0.70669 0.37960
 H436 H 0.65072 0.67940 0.29279
 H437 H 0.58782 0.65271 0.26450
 H438 H 0.61441 0.73930 0.31589
 C439 C 0.60431 0.18219 0.78691
 C440 C 0.62372 0.19478 0.82004
 C441 C 0.61438 0.16023 0.83788
 C442 C 0.59533 0.14725 0.80508
 C443 C 0.58040 0.17568 0.85223
 C444 C 0.58935 0.21059 0.83413
 C445 C 0.57044 0.19784 0.80126
 C446 C 0.56121 0.16327 0.81911
 H447 H 0.61386 0.18504 0.75981
 H448 H 0.64953 0.20771 0.82023
 H449 H 0.59664 0.12151 0.79220
 H450 H 0.57055 0.17251 0.87919
 H451 H 0.58660 0.23680 0.84596
 H452 H 0.53523 0.15065 0.81858
 C453 C 1.09072 0.71088 0.83559
 C454 C 1.08202 0.67609 0.85407
 C455 C 1.11578 0.66051 0.83932
 C456 C 1.12488 0.69494 0.82111
 C457 C 1.09623 0.64733 0.80689
 C458 C 1.06234 0.66347 0.82132
 C459 C 1.07132 0.69791 0.80310
 C460 C 1.10497 0.68214 0.78837
 H461 H 1.08815 0.73717 0.84728
 H462 H 1.07258 0.67311 0.88119
 H463 H 1.15070 0.70784 0.82085
 H464 H 1.09731 0.62152 0.79414
 H465 H 1.03634 0.65087 0.82126
 H466 H 1.11413 0.68479 0.76111
 C467 C 1.10455 0.18214 0.28713
 C468 C 1.12402 0.19477 0.32020
 C469 C 1.11512 0.16006 0.33793
 C470 C 1.09601 0.14703 0.30518
 C471 C 1.08107 0.17511 0.35254
 C472 C 1.08957 0.21020 0.33454
 C473 C 1.07060 0.19740 0.30173
 C474 C 1.06182 0.16266 0.31948
 H475 H 1.11392 0.18520 0.25999
 H476 H 1.14972 0.20793 0.32031
 H477 H 1.09750 0.12137 0.29217
 H478 H 1.07143 0.17174 0.37955
 H479 H 1.08662 0.23632 0.34650
 H480 H 1.03597 0.14976 0.31903
 C481 C 0.60485 0.28893 0.68134
 C482 C 0.59652 0.30716 0.64628
 C483 C 0.61576 0.33976 0.65948
 C484 C 0.62445 0.32184 0.69416
 C485 C 0.58175 0.35451 0.67446
 C486 C 0.56235 0.32158 0.66184
 C487 C 0.57093 0.30366 0.69653
 C488 C 0.59003 0.33633 0.70951
 H489 H 0.61406 0.26172 0.68433
 H490 H 0.59799 0.29423 0.62058
 H491 H 0.65009 0.32175 0.70743
 H492 H 0.57225 0.38158 0.67115
 H493 H 0.53655 0.32132 0.64886
 H494 H 0.58705 0.34821 0.73566
 C495 C 0.60516 0.81733 0.21297
 C496 C 0.62456 0.80471 0.17985
 C497 C 0.61561 0.83943 0.16214
 C498 C 0.59658 0.85245 0.19494
 C499 C 0.58153 0.82438 0.14762
 C500 C 0.59007 0.78929 0.16559
 C501 C 0.57118 0.80208 0.19845
 C502 C 0.56236 0.83682 0.18073
 H503 H 0.61460 0.81426 0.24009
 H504 H 0.65025 0.79153 0.17969
 H505 H 0.59812 0.87811 0.20794
 H506 H 0.57182 0.82775 0.12063
 H507 H 0.58710 0.76317 0.15363
 H508 H 0.53651 0.84973 0.18124
 C509 C 1.10470 0.28724 0.18111
 C510 C 1.09640 0.30551 0.14605
 C511 C 1.11571 0.33808 0.15927
 C512 C 1.12437 0.32013 0.19393
 C513 C 1.08172 0.35287 0.17426
 C514 C 1.06226 0.31999 0.16162
 C515 C 1.07080 0.30204 0.19631
 C516 C 1.08998 0.33467 0.20929
 H517 H 1.11385 0.26001 0.18409
 H518 H 1.09791 0.29261 0.12034
 H519 H 1.15001 0.32000 0.20719
 H520 H 1.07227 0.37997 0.17097
 H521 H 1.03644 0.31979 0.14866
 H522 H 1.08704 0.34656 0.23544
 C523 C 1.10500 0.81850 0.71210
 C524 C 1.12470 0.80575 0.67921
 C525 C 1.11558 0.84025 0.66116
 C526 C 1.09624 0.85338 0.69373
 C527 C 1.08171 0.82481 0.64654
 C528 C 1.09042 0.78993 0.66486
 C529 C 1.07123 0.80285 0.69750
 C530 C 1.06223 0.83737 0.67943
 H531 H 1.11429 0.81574 0.73930
 H532 H 1.15049 0.79278 0.67929
 H533 H 1.09743 0.87916 0.70654
 H534 H 1.07212 0.82790 0.61948
 H535 H 1.08773 0.76369 0.65312
 H536 H 1.03627 0.85004 0.67967
 C537 C 0.43708 0.66251 0.67884
 C538 C 0.40302 0.64689 0.69344
 C539 C 0.38362 0.65988 0.66085
 C540 C 0.41754 0.67493 0.64593
 C541 C 0.37487 0.69462 0.67862
 C542 C 0.39463 0.68202 0.71153
 C543 C 0.42845 0.69728 0.69662
 C544 C 0.40920 0.71005 0.66397
 H545 H 0.46293 0.64962 0.67906
 H546 H 0.40164 0.62126 0.70650
 H547 H 0.42696 0.67152 0.61885
 H548 H 0.34917 0.70778 0.67874
 H549 H 0.38549 0.68511 0.73875
 H550 H 0.41205 0.73616 0.65197
 C551 C 0.43870 0.16293 0.18056
 C552 C 0.40460 0.14697 0.19470
 C553 C 0.38545 0.16010 0.16201
 C554 C 0.41941 0.17548 0.14756
 C555 C 0.37627 0.19462 0.17998
 C556 C 0.39578 0.18189 0.21299
 C557 C 0.42964 0.19747 0.19855
 C558 C 0.41063 0.21037 0.16579
 H559 H 0.46465 0.15024 0.18096
 H560 H 0.40329 0.12120 0.20752
 H561 H 0.42913 0.17236 0.12055
 H562 H 0.35050 0.20762 0.17991
 H563 H 0.38636 0.18469 0.24015
 H564 H 0.41340 0.23660 0.15403
 C565 C -0.06172 0.67899 0.16176
 C566 C -0.08125 0.64614 0.17435
 C567 C -0.11517 0.66096 0.15922
 C568 C -0.09579 0.69349 0.14605
 C569 C -0.12395 0.67894 0.19384
 C570 C -0.08962 0.66438 0.20934
 C571 C -0.07038 0.69698 0.19640
 C572 C -0.10420 0.71179 0.18106
 H573 H -0.03585 0.67916 0.14890
 H574 H -0.07180 0.61904 0.17110
 H575 H -0.09717 0.70637 0.12032
 H576 H -0.14963 0.67912 0.20701
 H577 H -0.08679 0.65252 0.23552
 H578 H -0.11335 0.73903 0.18398
 C579 C -0.09060 0.21043 0.66579
 C580 C -0.08198 0.17539 0.64777
 C581 C -0.11601 0.16024 0.66230
 C582 C -0.12504 0.19491 0.68006
 C583 C -0.09694 0.14722 0.69507
 C584 C -0.06276 0.16295 0.68085
 C585 C -0.07166 0.19765 0.69862
 C586 C -0.10559 0.18230 0.71315
 H587 H -0.08770 0.23658 0.65387
 H588 H -0.07227 0.17207 0.62078
 H589 H -0.15076 0.20802 0.67993
 H590 H -0.09838 0.12155 0.70806
 H591 H -0.03688 0.15011 0.68133
 H592 H -0.11502 0.18531 0.74028
 C593 C 0.31804 0.39484 0.28819
 C594 C 0.35281 0.40359 0.30680
 C595 C 0.33948 0.38418 0.33925
 C596 C 0.30510 0.37507 0.32096
 C597 C 0.32391 0.41801 0.35383
 C598 C 0.33667 0.43756 0.32106
 C599 C 0.30227 0.42856 0.30276
 C600 C 0.28916 0.40931 0.33527
 H601 H 0.31546 0.38560 0.26096
 H602 H 0.37867 0.40241 0.29417
 H603 H 0.29215 0.34927 0.32073
 H604 H 0.32682 0.42755 0.38093
 H605 H 0.34931 0.46354 0.32095
 H606 H 0.26284 0.41195 0.34686
 C607 C 0.32106 -0.06176 0.83644
 C608 C 0.30663 -0.09570 0.85247
 C609 C 0.33908 -0.11520 0.83925
 C610 C 0.35383 -0.08140 0.82379
 C611 C 0.32090 -0.12420 0.80479
 C612 C 0.28813 -0.10434 0.81762
 C613 C 0.30287 -0.07064 0.80196
 C614 C 0.33538 -0.08999 0.78896
 H615 H 0.32098 -0.03580 0.84912
 H616 H 0.29388 -0.09689 0.87827
 H617 H 0.38095 -0.07195 0.82682
 H618 H 0.32064 -0.14998 0.79181
 H619 H 0.26087 -0.11350 0.81492
 H620 H 0.34708 -0.08733 0.76269
 C621 C 0.81719 0.39560 0.78861
 C622 C 0.85207 0.40399 0.80716
 C623 C 0.83866 0.38460 0.83957
 C624 C 0.80416 0.37583 0.82134
 C625 C 0.82341 0.41851 0.85430
 C626 C 0.83626 0.43805 0.82156
 C627 C 0.80174 0.42942 0.80331
 C628 C 0.78854 0.41016 0.83579
 H629 H 0.81447 0.38645 0.76135
 H630 H 0.87789 0.40263 0.79445
 H631 H 0.79101 0.35014 0.82106
 H632 H 0.82645 0.42792 0.88142
 H633 H 0.84914 0.46390 0.82150
 H634 H 0.76227 0.41300 0.84745
 C635 C 0.79110 -0.09040 0.33508
 C636 C 0.80659 -0.12476 0.32059
 C637 C 0.84131 -0.11580 0.33828
 C638 C 0.82620 -0.08184 0.35302
 C639 C 0.85421 -0.09656 0.30556
 C640 C 0.81908 -0.10515 0.28755
 C641 C 0.80376 -0.07129 0.30229
 C642 C 0.83851 -0.06245 0.31999
 H643 H 0.76499 -0.08757 0.34711
 H644 H 0.79348 -0.15048 0.32065
 H645 H 0.82960 -0.07225 0.38005
 H646 H 0.87984 -0.09793 0.29248
 H647 H 0.81599 -0.11445 0.26039
 H648 H 0.85131 -0.03655 0.31959
 C649 C 0.28702 0.60468 0.68208
 C650 C 0.31996 0.62441 0.69466
 C651 C 0.33784 0.61535 0.66006
 C652 C 0.30522 0.59598 0.64709
 C653 C 0.35258 0.58148 0.67540
 C654 C 0.33444 0.59014 0.71037
 C655 C 0.30174 0.57092 0.69762
 C656 C 0.31965 0.56197 0.66300
 H657 H 0.25981 0.61394 0.68500
 H658 H 0.31993 0.65020 0.70763
 H659 H 0.29227 0.59722 0.62139
 H660 H 0.37965 0.57193 0.67216
 H661 H 0.34634 0.58744 0.73654
 H662 H 0.31937 0.53602 0.65031
 C663 C 0.32161 1.06215 0.16321
 C664 C 0.30729 1.09621 0.14732
 C665 C 0.33983 1.11553 0.16057
 C666 C 0.35447 1.08161 0.17589
 C667 C 0.32172 1.12448 0.19509
 C668 C 0.28887 1.10480 0.18222
 C669 C 0.30350 1.07098 0.19775
 C670 C 0.33610 1.09015 0.21078
 H671 H 0.32141 1.03625 0.15042
 H672 H 0.29452 1.09753 0.12154
 H673 H 0.38155 1.07207 0.17279
 H674 H 0.32155 1.15020 0.20817
 H675 H 0.26165 1.11405 0.18500
 H676 H 0.34782 1.08736 0.23702
 C677 C 0.78985 0.59024 0.16436
 C678 C 0.80573 0.62447 0.17875
 C679 C 0.84016 0.61540 0.16054
 C680 C 0.82466 0.58158 0.14588
 C681 C 0.85341 0.59596 0.19300
 C682 C 0.81859 0.60467 0.21153
 C683 C 0.80289 0.57095 0.19688
 C684 C 0.83734 0.56200 0.17867
 H685 H 0.76356 0.58759 0.15270
 H686 H 0.79276 0.65026 0.17897
 H687 H 0.82764 0.57207 0.11878
 H688 H 0.87923 0.59714 0.20573
 H689 H 0.81593 0.61388 0.23877
 H690 H 0.85000 0.53603 0.17878
 C691 C 0.78732 1.10481 0.68241
 C692 C 0.82009 1.12460 0.69534
 C693 C 0.83833 1.11563 0.66090
 C694 C 0.80589 1.09621 0.64758
 C695 C 0.85301 1.08178 0.67632
 C696 C 0.83450 1.09034 0.71113
 C697 C 0.80199 1.07105 0.69803
 C698 C 0.82024 1.06221 0.66357
 H699 H 0.76007 1.11399 0.68508
 H700 H 0.81986 1.15036 0.70836
 H701 H 0.79320 1.09748 0.62175
 H702 H 0.88013 1.07230 0.67333
 H703 H 0.84616 1.08762 0.73741
 H704 H 0.82016 1.03628 0.65084
 C705 C 0.66398 0.56235 0.32107
 C706 C 0.67663 0.58183 0.35392
 C707 C 0.66123 0.61572 0.33928
 C708 C 0.64801 0.59637 0.30676
 C709 C 0.69573 0.62473 0.32118
 C710 C 0.71151 0.59044 0.33554
 C711 C 0.69851 0.57124 0.30294
 C712 C 0.68290 0.60502 0.28833
 H713 H 0.65123 0.53643 0.32088
 H714 H 0.67357 0.57229 0.38100
 H715 H 0.62223 0.59763 0.29398
 H716 H 0.70875 0.65050 0.32102
 H717 H 0.73776 0.58770 0.34725
 H718 H 0.68564 0.61429 0.26112
 C719 C 0.66383 1.09019 0.78930
 C720 C 0.64516 1.08166 0.82403
 C721 C 0.65984 1.11548 0.83952
 C722 C 0.67825 1.12441 0.80516
 C723 C 0.69219 1.09598 0.85297
 C724 C 0.67784 1.06202 0.83690
 C725 C 0.69625 1.07084 0.80253
 C726 C 0.71092 1.10455 0.81823
 H727 H 0.65229 1.08751 0.76297
 H728 H 0.61801 1.07224 0.82690
 H729 H 0.67861 1.15017 0.79214
 H730 H 0.70479 1.09719 0.87885
 H731 H 0.67782 1.03608 0.84962
 H732 H 0.73820 1.11368 0.81568
 C733 C 0.21198 0.60466 0.81852
 C734 C 0.17915 0.62450 0.80584
 C735 C 0.16123 0.61572 0.84048
 C736 C 0.19374 0.59623 0.85355
 C737 C 0.14629 0.58186 0.82533
 C738 C 0.16448 0.59024 0.79031
 C739 C 0.19706 0.57091 0.80316
 C740 C 0.17913 0.56223 0.83782
 H741 H 0.23924 0.61375 0.81555
 H742 H 0.17936 0.65021 0.79271
 H743 H 0.20669 0.59753 0.87925
 H744 H 0.11918 0.57247 0.82863
 H745 H 0.15256 0.58748 0.76416
 H746 H 0.17927 0.53634 0.85063
 C747 C 0.21184 1.10493 0.31742
 C748 C 0.17893 1.12458 0.30461
 C749 C 0.16088 1.11556 0.33913
 C750 C 0.19346 1.09628 0.35233
 C751 C 0.14628 1.08164 0.32379
 C752 C 0.16461 1.09024 0.28889
 C753 C 0.19726 1.07111 0.30187
 C754 C 0.17918 1.06222 0.33642
 H755 H 0.23904 1.11424 0.31463
 H756 H 0.17902 1.15034 0.29158
 H757 H 0.20625 1.09761 0.37810
 H758 H 0.11921 1.07206 0.32689
 H759 H 0.15287 1.08745 0.26266
 H760 H 0.17943 1.03631 0.34919
 C761 C 0.66319 0.43876 0.67899
 C762 C 0.67593 0.41917 0.64624
 C763 C 0.66041 0.38535 0.66088
 C764 C 0.64709 0.40480 0.69331
 C765 C 0.69481 0.37629 0.67916
 C766 C 0.71071 0.41052 0.66478
 C767 C 0.69761 0.42982 0.69728
 C768 C 0.68189 0.39610 0.71191
 H769 H 0.65052 0.46473 0.67908
 H770 H 0.67300 0.42866 0.61913
 H771 H 0.62124 0.40359 0.70597
 H772 H 0.70778 0.35050 0.67940
 H773 H 0.73702 0.41317 0.65316
 H774 H 0.68450 0.38691 0.73916
 C775 C 0.67963 -0.06269 0.16333
 C776 C 0.69389 -0.09674 0.14737
 C777 C 0.66138 -0.11606 0.16070
 C778 C 0.64681 -0.08215 0.17609
 C779 C 0.67959 -0.12505 0.19515
 C780 C 0.71243 -0.10536 0.18221
 C781 C 0.69786 -0.07155 0.19779
 C782 C 0.66528 -0.09073 0.21090
 H783 H 0.67980 -0.03677 0.15056
 H784 H 0.70660 -0.09805 0.12155
 H785 H 0.61971 -0.07261 0.17310
 H786 H 0.67974 -0.15080 0.20819
 H787 H 0.73966 -0.11462 0.18489
 H788 H 0.65362 -0.08797 0.23717
 C789 C 0.21060 0.40898 0.16455
 C790 C 0.19479 0.37473 0.17895
 C791 C 0.16034 0.38372 0.16072
 C792 C 0.17579 0.41756 0.14606
 C793 C 0.14704 0.40315 0.19317
 C794 C 0.18187 0.39452 0.21172
 C795 C 0.19752 0.42827 0.19706
 C796 C 0.16305 0.43714 0.17882
 H797 H 0.23689 0.41167 0.15289
 H798 H 0.20780 0.34896 0.17919
 H799 H 0.17280 0.42705 0.11895
 H800 H 0.12121 0.40190 0.20586
 H801 H 0.18454 0.38533 0.23896
 H802 H 0.15033 0.46308 0.17891
 C803 C 0.21198 -0.10432 0.68191
 C804 C 0.17908 -0.12405 0.69460
 C805 C 0.16115 -0.11512 0.65999
 C806 C 0.19373 -0.09576 0.64691
 C807 C 0.14638 -0.08122 0.67523
 C808 C 0.16458 -0.08974 0.71022
 C809 C 0.19721 -0.07053 0.69736
 C810 C 0.17928 -0.06172 0.66273
 H811 H 0.23919 -0.11354 0.68483
 H812 H 0.17923 -0.14978 0.70768
 H813 H 0.20664 -0.09709 0.62119
 H814 H 0.11930 -0.07172 0.67198
 H815 H 0.15271 -0.08696 0.73640
 H816 H 0.17951 -0.03582 0.64994
 C817 C 0.33456 0.28940 0.41029
 C818 C 0.32035 0.30494 0.37583
 C819 C 0.33811 0.33961 0.38490
 C820 C 0.35258 0.32444 0.41894
 C821 C 0.30530 0.35263 0.40393
 C822 C 0.28723 0.31757 0.39522
 C823 C 0.30169 0.30220 0.42917
 C824 C 0.31946 0.33688 0.43811
 H825 H 0.34646 0.26325 0.41320
 H826 H 0.32054 0.29185 0.35011
 H827 H 0.37957 0.32774 0.42868
 H828 H 0.29231 0.37830 0.40250
 H829 H 0.26010 0.31458 0.38575
 H830 H 0.31895 0.34971 0.46398
 C831 C 0.29011 0.83602 -0.09037
 C832 C 0.32522 0.85410 -0.08208
 C833 C 0.34022 0.83926 -0.11605
 C834 C 0.30548 0.82145 -0.12476
 C835 C 0.35329 0.80664 -0.09674
 C836 C 0.33773 0.82117 -0.06263
 C837 C 0.30298 0.80334 -0.07122
 C838 C 0.31818 0.78852 -0.10509
 H839 H 0.26398 0.84798 -0.08744
 H840 H 0.32861 0.88118 -0.07262
 H841 H 0.29226 0.82136 -0.15041
 H842 H 0.37894 0.79361 -0.09817
 H843 H 0.35067 0.82091 -0.03681
 H844 H 0.31511 0.76131 -0.11428
 C845 C 0.83339 0.28957 -0.08977
 C846 C 0.81917 0.30531 -0.12411
 C847 C 0.83709 0.33986 -0.11493
 C848 C 0.85157 0.32449 -0.08098
 C849 C 0.80438 0.35293 -0.09578
 C850 C 0.78613 0.31798 -0.10459
 C851 C 0.80061 0.30240 -0.07074
 C852 C 0.81854 0.33697 -0.06168
 H853 H 0.84521 0.26336 -0.08701
 H854 H 0.81926 0.29233 -0.14989
 H855 H 0.87859 0.32764 -0.07127
 H856 H 0.79152 0.37868 -0.09711
 H857 H 0.75897 0.31514 -0.11401
 H858 H 0.81813 0.34967 -0.03574
 C859 C 0.83690 0.78956 0.40959
 C860 C 0.82233 0.80513 0.37530
 C861 C 0.84038 0.83972 0.38407
 C862 C 0.85522 0.82452 0.41795
 C863 C 0.80790 0.85294 0.40351
 C864 C 0.78954 0.81797 0.39510
 C865 C 0.80435 0.80256 0.42888
 C866 C 0.82242 0.83717 0.43753
 H867 H 0.84870 0.76334 0.41239
 H868 H 0.82208 0.79198 0.34960
 H869 H 0.88235 0.82771 0.42734
 H870 H 0.79503 0.87868 0.40221
 H871 H 0.76228 0.81510 0.38597
 H872 H 0.82231 0.85003 0.46339
 C873 C 0.66518 0.29049 0.58995
 C874 C 0.67945 0.30603 0.62437
 C875 C 0.66177 0.34073 0.61527
 C876 C 0.64725 0.32556 0.58125
 C877 C 0.69460 0.35364 0.59622
 C878 C 0.71260 0.31854 0.60495
 C879 C 0.69807 0.30317 0.57103
 C880 C 0.68038 0.33789 0.56206
 H881 H 0.65321 0.26436 0.58708
 H882 H 0.67927 0.29295 0.65010
 H883 H 0.62026 0.32892 0.57152
 H884 H 0.70764 0.37929 0.59764
 H885 H 0.73972 0.31548 0.61440
 H886 H 0.68092 0.35068 0.53617
 C887 C 0.66215 0.82019 1.06268
 C888 C 0.64654 0.80574 1.09681
 C889 C 0.65982 0.83828 1.11611
 C890 C 0.67485 0.85304 1.08213
 C891 C 0.69444 0.82026 1.12479
 C892 C 0.68157 0.78740 1.10512
 C893 C 0.69681 0.80216 1.07124
 C894 C 0.70984 0.83477 1.09041
 H895 H 0.64920 0.82000 1.03686
 H896 H 0.62079 0.79289 1.09829
 H897 H 0.67161 0.88014 1.07268
 H898 H 0.70770 0.82011 1.15043
 H899 H 0.68449 0.76017 1.11427
 H900 H 0.73603 0.84661 1.08749
 C901 C 0.18042 0.33639 1.06188
 C902 C 0.14731 0.32393 1.08104
 C903 C 0.16177 0.33911 1.11509
 C904 C 0.19457 0.35214 1.09607
 C905 C 0.17955 0.30446 1.12416
 C906 C 0.16536 0.28890 1.08970
 C907 C 0.19822 0.30172 1.07082
 C908 C 0.21267 0.31710 1.10477
 H909 H 0.18094 0.34922 1.03601
 H910 H 0.12032 0.32723 1.07129
 H911 H 0.20754 0.37783 1.09749
 H912 H 0.17938 0.29136 1.14987
 H913 H 0.15347 0.26274 1.08679
 H914 H 0.23979 0.31412 1.11425
 C915 C 0.21026 0.83579 0.58987
 C916 C 0.17522 0.85394 0.58144
 C917 C 0.16009 0.83921 0.61540
 C918 C 0.19476 0.82134 0.62425
 C919 C 0.14700 0.80658 0.59613
 C920 C 0.16270 0.82099 0.56203
 C921 C 0.19738 0.80310 0.57075
 C922 C 0.18205 0.78839 0.60462
 H923 H 0.23642 0.84769 0.58700
 H924 H 0.17193 0.88101 0.57192
 H925 H 0.20790 0.82129 0.64995
 H926 H 0.12132 0.79360 0.59752
 H927 H 0.14982 0.82071 0.53618
 H928 H 0.18503 0.76120 0.61388
 C929 C 0.33607 0.67896 0.56194
 C930 C 0.35197 0.69342 0.59592
 C931 C 0.33886 0.66089 0.61534
 C932 C 0.32353 0.64611 0.58150
 C933 C 0.30429 0.67889 0.62431
 C934 C 0.31702 0.71174 0.60452
 C935 C 0.30149 0.69699 0.57078
 C936 C 0.28859 0.66439 0.59004
 H937 H 0.34883 0.67913 0.53603
 H938 H 0.37771 0.70630 0.59714
 H939 H 0.32670 0.61901 0.57203
 H940 H 0.29127 0.67907 0.65006
 H941 H 0.31417 0.73898 0.61372
 H942 H 0.26237 0.65258 0.58732
 C943 C 0.31930 0.21203 1.10506
 C944 C 0.30653 0.17910 1.12470
 C945 C 0.34122 0.16121 1.11600
 C946 C 0.35439 0.19381 1.09673
 C947 C 0.32622 0.14644 1.08200
 C948 C 0.29117 0.16459 1.09031
 C949 C 0.30409 0.19726 1.07117
 C950 C 0.33881 0.17936 1.06258
 H951 H 0.31629 0.23924 1.11426
 H952 H 0.29328 0.17919 1.15034
 H953 H 0.38008 0.20676 1.09822
 H954 H 0.32953 0.11936 1.07252
 H955 H 0.26502 0.15267 1.08738
 H956 H 0.35175 0.17961 1.03676
 C957 C 0.82026 0.66286 1.06173
 C958 C 0.85337 0.67525 1.08094
 C959 C 0.83887 0.66003 1.11495
 C960 C 0.80607 0.64707 1.09588
 C961 C 0.82112 0.69470 1.12406
 C962 C 0.83536 0.71029 1.08964
 C963 C 0.80250 0.69754 1.07071
 C964 C 0.78800 0.68213 1.10463
 H965 H 0.81975 0.65007 1.03584
 H966 H 0.88036 0.67193 1.07120
 H967 H 0.79306 0.62140 1.09727
 H968 H 0.82127 0.70778 1.14979
 H969 H 0.84729 0.73644 1.08677
 H970 H 0.76088 0.68513 1.11409
 C971 C 0.83739 0.17951 0.56293
 C972 C 0.85295 0.19392 0.59710
 C973 C 0.83972 0.16131 0.61632
 C974 C 0.82475 0.14659 0.58230
 C975 C 0.80504 0.17923 0.62501
 C976 C 0.81788 0.21216 0.60542
 C977 C 0.80269 0.19745 0.57149
 C978 C 0.78969 0.16477 0.59057
 H979 H 0.85039 0.17978 0.53714
 H980 H 0.87865 0.20684 0.59860
 H981 H 0.82805 0.11952 0.57279
 H982 H 0.79177 0.17930 0.65063
 H983 H 0.81489 0.23936 0.61465
 H984 H 0.76353 0.15290 0.58759
 C985 C 0.66594 0.71060 0.41016
 C986 C 0.68026 0.69493 0.37581
 C987 C 0.66244 0.66031 0.38493
 C988 C 0.64786 0.67560 0.41887
 C989 C 0.69516 0.64732 0.40412
 C990 C 0.71331 0.68233 0.39536
 C991 C 0.69873 0.69784 0.42920
 C992 C 0.68089 0.66320 0.43820
 H993 H 0.65405 0.73677 0.41294
 H994 H 0.68018 0.70794 0.35005
 H995 H 0.62084 0.67234 0.42855
 H996 H 0.70810 0.62161 0.40278
 H997 H 0.74046 0.68527 0.38598
 H998 H 0.68130 0.65048 0.46413
 C999 C 0.70839 0.16446 -0.09011
 C1000 C 0.67328 0.14639 -0.08189
 C1001 C 0.65841 0.16117 -0.11593
 C1002 C 0.69315 0.17899 -0.12455
 C1003 C 0.64525 0.19382 -0.09672
 C1004 C 0.66071 0.17935 -0.06252
 C1005 C 0.69548 0.19717 -0.07103
 C1006 C 0.68040 0.21195 -0.10497
 H1007 H 0.73451 0.15249 -0.08710
 H1008 H 0.66987 0.11933 -0.07240
 H1009 H 0.70648 0.17903 -0.15015
 H1010 H 0.61959 0.20682 -0.09828
 H1011 H 0.64769 0.17965 -0.03674
 H1012 H 0.68348 0.23915 -0.11417
 C1013 C 0.21089 0.66486 -0.08999
 C1014 C 0.17581 0.64694 -0.08125
 C1015 C 0.16055 0.66159 -0.11519
 C1016 C 0.19525 0.67924 -0.12433
 C1017 C 0.14774 0.69438 -0.09600
 C1018 C 0.16357 0.68004 -0.06193
 C1019 C 0.19830 0.69770 -0.07095
 C1020 C 0.18283 0.71235 -0.10478
 H1021 H 0.23701 0.65284 -0.08722
 H1022 H 0.17242 0.61994 -0.07157
 H1023 H 0.20825 0.67913 -0.15010
 H1024 H 0.12210 0.70746 -0.09730
 H1025 H 0.15085 0.68052 -0.03600
 H1026 H 0.18590 0.73948 -0.11417
 C1027 C 0.18127 0.21196 0.39487
 C1028 C 0.19412 0.17909 0.37520
 C1029 C 0.15946 0.16113 0.38385
 C1030 C 0.14622 0.19368 0.40315
 C1031 C 0.17446 0.14633 0.41783
 C1032 C 0.20949 0.16456 0.40960
 C1033 C 0.19648 0.19718 0.42876
 C1034 C 0.16179 0.17920 0.43729
 H1035 H 0.18424 0.23919 0.38571
 H1036 H 0.20738 0.17923 0.34956
 H1037 H 0.12050 0.20658 0.40167
 H1038 H 0.17119 0.11923 0.42726
 H1039 H 0.23566 0.15270 0.41255
 H1040 H 0.14880 0.17940 0.46309
 C1041 C 0.31743 0.39546 0.71180
 C1042 C 0.30451 0.37563 0.67906
 C1043 C 0.33884 0.38480 0.66073
 C1044 C 0.35216 0.40428 0.69315
 C1045 C 0.32319 0.41857 0.64613
 C1046 C 0.28848 0.40981 0.66473
 C1047 C 0.30157 0.42913 0.69722
 C1048 C 0.33593 0.43819 0.67887
 H1049 H 0.31490 0.38624 0.73905
 H1050 H 0.29162 0.34980 0.67932
 H1051 H 0.37802 0.40320 0.70578
 H1052 H 0.32605 0.42809 0.61902
 H1053 H 0.26213 0.41239 0.65317
 H1054 H 0.34851 0.46419 0.67894
 C1055 C 0.32159 0.93768 0.16345
 C1056 C 0.35438 0.91806 0.17606
 C1057 C 0.33957 0.88423 0.16073
 C1058 C 0.30710 0.90371 0.14755
 C1059 C 0.32148 0.87533 0.19526
 C1060 C 0.33601 0.90958 0.21097
 C1061 C 0.30348 0.92891 0.19800
 C1062 C 0.28869 0.89517 0.18246
 H1063 H 0.32149 0.96359 0.15068
 H1064 H 0.38151 0.92747 0.17295
 H1065 H 0.29426 0.90249 0.12179
 H1066 H 0.32124 0.84957 0.20829
 H1067 H 0.34778 0.91230 0.23720
 H1068 H 0.26143 0.88603 0.18526
 C1069 C 0.83485 0.40975 0.20935
 C1070 C 0.82029 0.37536 0.19402
 C1071 C 0.83803 0.38411 0.15927
 C1072 C 0.85284 0.41810 0.17423
 C1073 C 0.80535 0.40338 0.14627
 C1074 C 0.78730 0.39500 0.18142
 C1075 C 0.80211 0.42889 0.19659
 C1076 C 0.81986 0.43752 0.16182
 H1077 H 0.84689 0.41266 0.23544
 H1078 H 0.82027 0.34970 0.20724
 H1079 H 0.87990 0.42760 0.17081
 H1080 H 0.79230 0.40190 0.12063
 H1081 H 0.76010 0.38579 0.18453
 H1082 H 0.81954 0.46336 0.14890
 C1083 C 0.78983 0.91007 0.66521
 C1084 C 0.82481 0.91887 0.64715
 C1085 C 0.84021 0.88500 0.66180
 C1086 C 0.80560 0.87580 0.67960
 C1087 C 0.85310 0.90429 0.69449
 C1088 C 0.83712 0.93830 0.68016
 C1089 C 0.80249 0.92922 0.69797
 C1090 C 0.81809 0.89545 0.71261
 H1091 H 0.76366 0.91274 0.65329
 H1092 H 0.82806 0.92852 0.62012
 H1093 H 0.79267 0.84999 0.67956
 H1094 H 0.87879 0.90305 0.70746
 H1095 H 0.84975 0.96429 0.68053
 H1096 H 0.81516 0.88610 0.73978
 C1097 C 0.66537 0.59072 0.70967
 C1098 C 0.67973 0.62513 0.69420
 C1099 C 0.66197 0.61617 0.65951
 C1100 C 0.64736 0.58215 0.67462
 C1101 C 0.69472 0.59703 0.64651
 C1102 C 0.71280 0.60562 0.68160
 C1103 C 0.69819 0.57171 0.69691
 C1104 C 0.68042 0.56286 0.66220
 H1105 H 0.65340 0.58784 0.73579
 H1106 H 0.67961 0.65084 0.70733
 H1107 H 0.62034 0.57250 0.67127
 H1108 H 0.70772 0.59847 0.62085
 H1109 H 0.73995 0.61498 0.68463
 H1110 H 0.68085 0.53698 0.64937
 C1111 C 0.66226 0.06161 0.18067
 C1112 C 0.64661 0.09578 0.19501
 C1113 C 0.65956 0.11492 0.16225
 C1114 C 0.67462 0.08090 0.14760
 C1115 C 0.69430 0.12385 0.17993
 C1116 C 0.68175 0.10435 0.21301
 C1117 C 0.69701 0.07043 0.19836
 C1118 C 0.70972 0.08943 0.16554
 H1119 H 0.64941 0.03573 0.18113
 H1120 H 0.62098 0.09724 0.20807
 H1121 H 0.67121 0.07126 0.12059
 H1122 H 0.70745 0.14955 0.17981
 H1123 H 0.68485 0.11370 0.24016
 H1124 H 0.73583 0.08653 0.15352
 C1125 C 0.16512 0.58953 0.20939
 C1126 C 0.17972 0.62382 0.19386
 C1127 C 0.16192 0.61493 0.15918
 C1128 C 0.14705 0.58104 0.17434
 C1129 C 0.19453 0.59554 0.14622
 C1130 C 0.21265 0.60406 0.18130
 C1131 C 0.19779 0.57028 0.19666
 C1132 C 0.17998 0.56150 0.16196
 H1133 H 0.15313 0.58676 0.23552
 H1134 H 0.17982 0.64954 0.20696
 H1135 H 0.11998 0.57157 0.17098
 H1136 H 0.20753 0.59687 0.12055
 H1137 H 0.23987 0.61324 0.18433
 H1138 H 0.18023 0.53560 0.14918
 C1139 C 0.16435 0.09057 0.71085
 C1140 C 0.17861 0.12495 0.69518
 C1141 C 0.16045 0.11601 0.66070
 C1142 C 0.14591 0.08204 0.67600
 C1143 C 0.19300 0.09676 0.64735
 C1144 C 0.21149 0.10535 0.68222
 C1145 C 0.19697 0.07148 0.69772
 C1146 C 0.17878 0.06266 0.66323
 H1147 H 0.15269 0.08773 0.73712
 H1148 H 0.17872 0.15067 0.70828
 H1149 H 0.11883 0.07247 0.67297
 H1150 H 0.20573 0.09811 0.62155
 H1151 H 0.23870 0.11465 0.68494
 H1152 H 0.17901 0.03678 0.65039
 C1153 C 0.32012 0.56158 0.33709
 C1154 C 0.35309 0.58105 0.32472
 C1155 C 0.33830 0.61496 0.33991
 C1156 C 0.30565 0.59563 0.35286
 C1157 C 0.32052 0.62392 0.30524
 C1158 C 0.33504 0.58960 0.28967
 C1159 C 0.30231 0.57042 0.30240
 C1160 C 0.28754 0.60423 0.31779
 H1161 H 0.31981 0.53567 0.34986
 H1162 H 0.38014 0.57150 0.32806
 H1163 H 0.29264 0.59696 0.37852
 H1164 H 0.32051 0.64967 0.29219
 H1165 H 0.34701 0.58682 0.26354
 H1166 H 0.26035 0.61348 0.31478
 C1167 C 0.29056 0.09023 0.83474
 C1168 C 0.32568 0.08165 0.85263
 C1169 C 0.34075 0.11567 0.83799
 C1170 C 0.30600 0.12465 0.82034
 C1171 C 0.35364 0.09653 0.80520
 C1172 C 0.33799 0.06237 0.81953
 C1173 C 0.30322 0.07124 0.80188
 C1174 C 0.31850 0.10515 0.78724
 H1175 H 0.26446 0.08734 0.84677
 H1176 H 0.32911 0.07198 0.87962
 H1177 H 0.29286 0.15035 0.82048
 H1178 H 0.37927 0.09796 0.79212
 H1179 H 0.35081 0.03648 0.81905
 H1180 H 0.31538 0.11452 0.76010
 C1181 C 0.81818 0.60544 0.78807
 C1182 C 0.80548 0.62507 0.82102
 C1183 C 0.84011 0.61612 0.83892
 C1184 C 0.85320 0.59686 0.80628
 C1185 C 0.82490 0.58217 0.85359
 C1186 C 0.78990 0.59071 0.83543
 C1187 C 0.80276 0.57159 0.80273
 C1188 C 0.83741 0.56277 0.82064
 H1189 H 0.81524 0.61473 0.76089
 H1190 H 0.79238 0.65079 0.82097
 H1191 H 0.87890 0.59821 0.79335
 H1192 H 0.82814 0.57261 0.88064
 H1193 H 0.76372 0.58789 0.84730
 H1194 H 0.85023 0.53688 0.82033
 C1195 C 0.82077 0.06211 0.33753
 C1196 C 0.85355 0.08167 0.32480
 C1197 C 0.83881 0.11557 0.34005
 C1198 C 0.80634 0.09616 0.35336
 C1199 C 0.82065 0.12439 0.30554
 C1200 C 0.83513 0.09008 0.28992
 C1201 C 0.80260 0.07081 0.30300
 C1202 C 0.78786 0.10461 0.31845
 H1203 H 0.82067 0.03623 0.35036
 H1204 H 0.88068 0.07224 0.32788
 H1205 H 0.79358 0.09750 0.37915
 H1206 H 0.82042 0.15010 0.29242
 H1207 H 0.84687 0.08729 0.26368
 H1208 H 0.76060 0.11376 0.31568
 C1209 C 0.68249 0.39550 0.28816
 C1210 C 0.69529 0.37587 0.32107
 C1211 C 0.66077 0.38491 0.33911
 C1212 C 0.64757 0.40417 0.30652
 C1213 C 0.67610 0.41884 0.35369
 C1214 C 0.71100 0.41021 0.33538
 C1215 C 0.69803 0.42933 0.30272
 C1216 C 0.66348 0.43824 0.32078
 H1217 H 0.68528 0.38619 0.26097
 H1218 H 0.70833 0.35012 0.32100
 H1219 H 0.62180 0.40288 0.29370
 H1220 H 0.67300 0.42842 0.38075
 H1221 H 0.73724 0.41300 0.34712
 H1222 H 0.65071 0.46415 0.32050
 C1223 C 0.70946 0.90961 0.83530
 C1224 C 0.67441 0.91806 0.85341
 C1225 C 0.65929 0.88410 0.83866
 C1226 C 0.69397 0.87525 0.82080
 C1227 C 0.64622 0.90340 0.80604
 C1228 C 0.66192 0.93750 0.82048
 C1229 C 0.69662 0.92877 0.80261
 C1230 C 0.68129 0.89492 0.78786
 H1231 H 0.73561 0.91246 0.84722
 H1232 H 0.67110 0.92759 0.88047
 H1233 H 0.70712 0.84955 0.82074
 H1234 H 0.62053 0.90200 0.79308
 H1235 H 0.64907 0.96338 0.82020
 H1236 H 0.68428 0.88568 0.76067
 C1237 C 0.21043 0.40931 0.83565
 C1238 C 0.17568 0.41782 0.85429
 C1239 C 0.16019 0.38403 0.83955
 C1240 C 0.19457 0.37511 0.82118
 C1241 C 0.14677 0.40358 0.80722
 C1242 C 0.16283 0.43751 0.82164
 C1243 C 0.19723 0.42872 0.80324
 C1244 C 0.18154 0.39502 0.78852
 H1245 H 0.23676 0.41197 0.84722
 H1246 H 0.17278 0.42721 0.88145
 H1247 H 0.20758 0.34934 0.82082
 H1248 H 0.12090 0.40239 0.79461
 H1249 H 0.15011 0.46345 0.82168
 H1250 H 0.18411 0.38593 0.76124
 C1251 C 0.16476 0.90983 0.28896
 C1252 C 0.17925 0.87555 0.30465
 C1253 C 0.16118 0.88447 0.33919
 C1254 C 0.14641 0.91833 0.32388
 C1255 C 0.19367 0.90389 0.35238
 C1256 C 0.21207 0.89534 0.31746
 C1257 C 0.19731 0.92910 0.30194
 C1258 C 0.17922 0.93789 0.33649
 H1259 H 0.15299 0.91257 0.26274
 H1260 H 0.17948 0.84981 0.29159
 H1261 H 0.11930 0.92778 0.32701
 H1262 H 0.20650 0.90263 0.37814
 H1263 H 0.23931 0.88616 0.31465
 H1264 H 0.17936 0.96380 0.34927
 C1265 C 0.43709 0.32140 0.66179
 C1266 C 0.40300 0.30681 0.64624
 C1267 C 0.38361 0.33936 0.65937
 C1268 C 0.41757 0.35427 0.67434
 C1269 C 0.37498 0.32149 0.69408
 C1270 C 0.39473 0.28863 0.68134
 C1271 C 0.42858 0.30353 0.69653
 C1272 C 0.40934 0.33614 0.70943
 H1273 H 0.46291 0.32122 0.64883
 H1274 H 0.40154 0.29384 0.62056
 H1275 H 0.42696 0.38137 0.67097
 H1276 H 0.34934 0.32129 0.70734
 H1277 H 0.38562 0.26139 0.68439
 H1278 H 0.41226 0.34808 0.73556
 C1279 C 0.39550 0.81725 0.21263
 C1280 C 0.40427 0.85229 0.19455
 C1281 C 0.38502 0.83939 0.16184
 C1282 C 0.37590 0.80474 0.17960
 C1283 C 0.41894 0.82409 0.14719
 C1284 C 0.43832 0.83642 0.18021
 C1285 C 0.42933 0.80175 0.19799
 C1286 C 0.41023 0.78906 0.16522
 H1287 H 0.38614 0.81427 0.23979
 H1288 H 0.40297 0.87797 0.20755
 H1289 H 0.35011 0.79177 0.17953
 H1290 H 0.42858 0.82739 0.12017
 H1291 H 0.46425 0.84914 0.18061
 H1292 H 0.41298 0.76290 0.15328
 C1293 C 0.89477 0.31798 0.21136
 C1294 C 0.90327 0.35286 0.19284
 C1295 C 0.88376 0.33956 0.16044
 C1296 C 0.87490 0.30508 0.17864
 C1297 C 0.91760 0.32421 0.14564
 C1298 C 0.93724 0.33693 0.17837
 C1299 C 0.92850 0.30242 0.19658
 C1300 C 0.90914 0.28935 0.16410
 H1301 H 0.88566 0.31525 0.23863
 H1302 H 0.90202 0.37866 0.20559
 H1303 H 0.84916 0.29201 0.17894
 H1304 H 0.92699 0.32726 0.11851
 H1305 H 0.96316 0.34969 0.17840
 H1306 H 0.91185 0.26309 0.15240
 C1307 C 0.91008 0.83573 0.71094
 C1308 C 0.91873 0.85423 0.67615
 C1309 C 0.88496 0.83949 0.66062
 C1310 C 0.87590 0.82126 0.69504
 C1311 C 0.90449 0.80706 0.64740
 C1312 C 0.93840 0.82148 0.66350
 C1313 C 0.92946 0.80324 0.69794
 C1314 C 0.89578 0.78852 0.68220
 H1315 H 0.91267 0.84741 0.73723
 H1316 H 0.92818 0.88136 0.67318
 H1317 H 0.85010 0.82099 0.70798
 H1318 H 0.90336 0.79435 0.62157
 H1319 H 0.96438 0.82142 0.65087
 H1320 H 0.88663 0.76125 0.68485
 C1321 C 0.59059 0.33582 0.29033
 C1322 C 0.58219 0.35409 0.32530
 C1323 C 0.61612 0.33934 0.34046
 C1324 C 0.62493 0.32133 0.30586
 C1325 C 0.59678 0.30679 0.35366
 C1326 C 0.56270 0.32123 0.33793
 C1327 C 0.57140 0.30322 0.30331
 C1328 C 0.60523 0.28847 0.31867
 H1329 H 0.58774 0.34764 0.26413
 H1330 H 0.57271 0.38119 0.32852
 H1331 H 0.65063 0.32118 0.29271
 H1332 H 0.59816 0.29393 0.37940
 H1333 H 0.53684 0.32103 0.35079
 H1334 H 0.61442 0.26124 0.31578
 C1335 C 0.58966 0.83466 0.78943
 C1336 C 0.58097 0.85283 0.82437
 C1337 C 0.61490 0.83823 0.83970
 C1338 C 0.62399 0.82032 0.80512
 C1339 C 0.59565 0.80556 0.85274
 C1340 C 0.56158 0.81985 0.83683
 C1341 C 0.57055 0.80193 0.80224
 C1342 C 0.60438 0.78733 0.81776
 H1343 H 0.58691 0.84652 0.76324
 H1344 H 0.57134 0.87987 0.82756
 H1345 H 0.64976 0.82033 0.79211
 H1346 H 0.59697 0.79266 0.87846
 H1347 H 0.53564 0.81951 0.84955
 H1348 H 0.61372 0.76015 0.81488
 C1349 C 0.06209 0.32032 0.83859
 C1350 C 0.09630 0.30576 0.85394
 C1351 C 0.11553 0.33842 0.84086
 C1352 C 0.08148 0.35329 0.82609
 C1353 C 0.12408 0.32071 0.80605
 C1354 C 0.10447 0.28773 0.81873
 C1355 C 0.07051 0.30260 0.80375
 C1356 C 0.08961 0.33532 0.79091
 H1357 H 0.03633 0.32001 0.85165
 H1358 H 0.09788 0.29267 0.87955
 H1359 H 0.07203 0.38036 0.82960
 H1360 H 0.14967 0.32066 0.79270
 H1361 H 0.11364 0.26053 0.81554
 H1362 H 0.08656 0.34737 0.76484
 C1363 C 0.10528 0.81780 0.28705
 C1364 C 0.09641 0.85272 0.30531
 C1365 C 0.11571 0.83971 0.33796
 C1366 C 0.12494 0.80518 0.32001
 C1367 C 0.08185 0.82423 0.35254
 C1368 C 0.06241 0.83666 0.31958
 C1369 C 0.07152 0.80212 0.30162
 C1370 C 0.09067 0.78933 0.33432
 H1371 H 0.11464 0.81499 0.25987
 H1372 H 0.09761 0.87847 0.29246
 H1373 H 0.15076 0.79227 0.32000
 H1374 H 0.07219 0.82737 0.37957
 H1375 H 0.03642 0.84927 0.31926
 H1376 H 0.08802 0.76310 0.34613
 C1377 C 0.59015 0.71044 0.66409
 C1378 C 0.62455 0.69509 0.67863
 C1379 C 0.61596 0.66044 0.66061
 C1380 C 0.58197 0.67543 0.64580
 C1381 C 0.59662 0.64713 0.69311
 C1382 C 0.60485 0.68217 0.71145
 C1383 C 0.57096 0.69736 0.69666
 C1384 C 0.56248 0.66269 0.67862
 H1385 H 0.58719 0.73663 0.65226
 H1386 H 0.65018 0.70838 0.67883
 H1387 H 0.57258 0.67219 0.61869
 H1388 H 0.59810 0.62141 0.70599
 H1389 H 0.61398 0.68510 0.73869
 H1390 H 0.53669 0.64968 0.67877
 C1391 C 0.59026 0.16474 0.21156
 C1392 C 0.58136 0.14631 0.17679
 C1393 C 0.61520 0.16079 0.16116
 C1394 C 0.62450 0.17895 0.19555
 C1395 C 0.59588 0.19337 0.14800
 C1396 C 0.56191 0.17921 0.16420
 C1397 C 0.57110 0.19738 0.19862
 C1398 C 0.60483 0.21185 0.18278
 H1399 H 0.58766 0.15308 0.23785
 H1400 H 0.57169 0.11926 0.17384
 H1401 H 0.65034 0.17903 0.20842
 H1402 H 0.59702 0.20608 0.12217
 H1403 H 0.53589 0.17947 0.15165
 H1404 H 0.61420 0.23905 0.18541
 C1405 C 0.09110 0.70986 0.16381
 C1406 C 0.12529 0.69404 0.17836
 C1407 C 0.11631 0.65956 0.16020
 C1408 C 0.08253 0.67500 0.14539
 C1409 C 0.09677 0.64637 0.19263
 C1410 C 0.10539 0.68124 0.21110
 C1411 C 0.07171 0.69689 0.19630
 C1412 C 0.06285 0.66239 0.17813
 H1413 H 0.08847 0.73612 0.15207
 H1414 H 0.15107 0.70703 0.17864
 H1415 H 0.07312 0.67194 0.11826
 H1416 H 0.09791 0.62059 0.20543
 H1417 H 0.11450 0.68398 0.23836
 H1418 H 0.03689 0.64971 0.17819
 C1419 C 0.08917 0.21068 0.66571
 C1420 C 0.12364 0.19519 0.67996
 C1421 C 0.11469 0.16053 0.66214
 C1422 C 0.08063 0.17564 0.64762
 C1423 C 0.09562 0.14743 0.69488
 C1424 C 0.10421 0.18249 0.71302
 C1425 C 0.07024 0.19780 0.69852
 C1426 C 0.06142 0.16312 0.68068
 H1427 H 0.08623 0.23684 0.65383
 H1428 H 0.14935 0.20834 0.67983
 H1429 H 0.07095 0.17236 0.62062
 H1430 H 0.09713 0.12173 0.70781
 H1431 H 0.11362 0.18547 0.74016
 H1432 H 0.03557 0.15023 0.68113
 C1433 C 0.39522 0.68134 0.28829
 C1434 C 0.40361 0.64633 0.30661
 C1435 C 0.38408 0.65947 0.33907
 C1436 C 0.37532 0.69409 0.32106
 C1437 C 0.41792 0.67466 0.35401
 C1438 C 0.43760 0.66209 0.32124
 C1439 C 0.42896 0.69673 0.30322
 C1440 C 0.40957 0.70965 0.33574
 H1441 H 0.38616 0.68425 0.26103
 H1442 H 0.40232 0.62061 0.29369
 H1443 H 0.34960 0.70721 0.32081
 H1444 H 0.42726 0.67143 0.38114
 H1445 H 0.46348 0.64926 0.32117
 H1446 H 0.41233 0.73583 0.34761
 C1447 C 0.43839 0.17993 0.83584
 C1448 C 0.40444 0.19411 0.85207
 C1449 C 0.38512 0.16151 0.83898
 C1450 C 0.41894 0.14701 0.82332
 C1451 C 0.37576 0.17961 0.80457
 C1452 C 0.39544 0.21253 0.81728
 C1453 C 0.42915 0.19804 0.80141
 C1454 C 0.40999 0.16538 0.78854
 H1455 H 0.46443 0.18021 0.84836
 H1456 H 0.40332 0.20686 0.87788
 H1457 H 0.42862 0.11996 0.82631
 H1458 H 0.34991 0.17968 0.79174
 H1459 H 0.38606 0.23972 0.81462
 H1460 H 0.41256 0.15369 0.76226
 C1461 C 0.93814 0.67985 0.83747
 C1462 C 0.90412 0.69428 0.85333
 C1463 C 0.88472 0.66176 0.84015
 C1464 C 0.91860 0.64701 0.82487
 C1465 C 0.87581 0.67981 0.80561
 C1466 C 0.89557 0.71265 0.81839
 C1467 C 0.92935 0.69791 0.80291
 C1468 C 0.91009 0.66533 0.78995
 H1469 H 0.96406 0.68001 0.85024
 H1470 H 0.90282 0.70712 0.87908
 H1471 H 0.92808 0.61991 0.82802
 H1472 H 0.85007 0.67997 0.79254
 H1473 H 0.88638 0.73989 0.81557
 H1474 H 0.91285 0.65353 0.76373
 C1475 C 0.89483 0.18219 0.28771
 C1476 C 0.90355 0.14721 0.30592
 C1477 C 0.88438 0.16028 0.33861
 C1478 C 0.87530 0.19488 0.32072
 C1479 C 0.91836 0.17558 0.35314
 C1480 C 0.93766 0.16308 0.32013
 C1481 C 0.92871 0.19769 0.30223
 C1482 C 0.90968 0.21055 0.33498
 H1483 H 0.88543 0.18508 0.26055
 H1484 H 0.90219 0.12148 0.29303
 H1485 H 0.84954 0.20791 0.32076
 H1486 H 0.92803 0.17237 0.38016
 H1487 H 0.96357 0.15031 0.31975
 H1488 H 0.91250 0.23675 0.34681
 C1489 C 0.31901 0.33731 0.56190
 C1490 C 0.30477 0.35305 0.59606
 C1491 C 0.33760 0.34016 0.61513
 C1492 C 0.35215 0.32500 0.58111
 C1493 C 0.31994 0.30545 0.62422
 C1494 C 0.28679 0.31794 0.60478
 C1495 C 0.30133 0.30258 0.57086
 C1496 C 0.33423 0.28991 0.58979
 H1497 H 0.31847 0.35011 0.53602
 H1498 H 0.29170 0.37868 0.59747
 H1499 H 0.37913 0.32837 0.57139
 H1500 H 0.32014 0.29238 0.64995
 H1501 H 0.25967 0.31487 0.61423
 H1502 H 0.34623 0.26379 0.58692
 C1503 C 0.33804 0.82069 0.06255
 C1504 C 0.32560 0.85361 0.08206
 C1505 C 0.34060 0.83869 0.11599
 C1506 C 0.35361 0.80609 0.09663
 C1507 C 0.30585 0.82093 0.12470
 C1508 C 0.29048 0.83558 0.09036
 C1509 C 0.30327 0.80291 0.07113
 C1510 C 0.31847 0.78801 0.10497
 H1511 H 0.35096 0.82045 0.03672
 H1512 H 0.32903 0.88070 0.07264
 H1513 H 0.37925 0.79303 0.09803
 H1514 H 0.29266 0.82083 0.15038
 H1515 H 0.26437 0.84759 0.08747
 H1516 H 0.31537 0.76078 0.11411
 C1517 C 0.81710 0.28718 0.10462
 C1518 C 0.85203 0.30545 0.09576
 C1519 C 0.83899 0.33813 0.11498
 C1520 C 0.80446 0.32019 0.12420
 C1521 C 0.82354 0.35265 0.08108
 C1522 C 0.83601 0.31965 0.06172
 C1523 C 0.80146 0.30169 0.07082
 C1524 C 0.78865 0.33445 0.08990
 H1525 H 0.81429 0.26001 0.11401
 H1526 H 0.87778 0.29258 0.09700
 H1527 H 0.79152 0.32024 0.15000
 H1528 H 0.82667 0.37968 0.07140
 H1529 H 0.84865 0.31928 0.03575
 H1530 H 0.76243 0.34626 0.08720
 C1531 C 0.78872 0.81851 0.60497
 C1532 C 0.82167 0.80589 0.62465
 C1533 C 0.83943 0.84064 0.61592
 C1534 C 0.80679 0.85366 0.59660
 C1535 C 0.85429 0.82566 0.58196
 C1536 C 0.83627 0.79053 0.59028
 C1537 C 0.80357 0.80332 0.57111
 C1538 C 0.82134 0.83809 0.56250
 H1539 H 0.76151 0.81541 0.61415
 H1540 H 0.82159 0.79267 0.65030
 H1541 H 0.79372 0.87929 0.59801
 H1542 H 0.88137 0.82908 0.57250
 H1543 H 0.84829 0.76443 0.58738
 H1544 H 0.82105 0.85102 0.53667
 C1545 C 0.28885 0.66419 0.40967
 C1546 C 0.30461 0.67859 0.37538
 C1547 C 0.33919 0.66066 0.38447
 C1548 C 0.32381 0.64599 0.41834
 C1549 C 0.35222 0.69328 0.40381
 C1550 C 0.31726 0.71153 0.39508
 C1551 C 0.30167 0.69687 0.42885
 C1552 C 0.33627 0.67892 0.43781
 H1553 H 0.26265 0.65236 0.41238
 H1554 H 0.29164 0.67866 0.34960
 H1555 H 0.32699 0.61892 0.42791
 H1556 H 0.37794 0.70619 0.40258
 H1557 H 0.31439 0.73873 0.38578
 H1558 H 0.34898 0.67920 0.46374
 C1559 C 0.28892 0.18158 0.89508
 C1560 C 0.32161 0.19452 0.87519
 C1561 C 0.33981 0.15999 0.88390
 C1562 C 0.30743 0.14666 0.90343
 C1563 C 0.35470 0.17522 0.91774
 C1564 C 0.33624 0.21012 0.90944
 C1565 C 0.30379 0.19701 0.92882
 C1566 C 0.32200 0.16246 0.93742
 H1567 H 0.26162 0.18436 0.88605
 H1568 H 0.32125 0.20769 0.84951
 H1569 H 0.29465 0.12087 0.90214
 H1570 H 0.38186 0.17211 0.92706
 H1571 H 0.34797 0.23637 0.91222
 H1572 H 0.32201 0.14961 0.96329
 C1573 C 0.82061 0.66343 0.93791
 C1574 C 0.80630 0.64760 0.90383
 C1575 C 0.83895 0.66069 0.88459
 C1576 C 0.85357 0.67595 0.91853
 C1577 C 0.82103 0.69529 0.87559
 C1578 C 0.78806 0.68258 0.89519
 C1579 C 0.80267 0.69805 0.92903
 C1580 C 0.83539 0.71093 0.90995
 H1581 H 0.82028 0.65063 0.96380
 H1582 H 0.79341 0.62187 0.90249
 H1583 H 0.88062 0.67272 0.92815
 H1584 H 0.82100 0.70837 0.84986
 H1585 H 0.76088 0.68548 0.88587
 H1586 H 0.84722 0.73712 0.91276
 C1587 C 0.83763 0.17963 0.43788
 C1588 C 0.82509 0.14664 0.41856
 C1589 C 0.84007 0.16134 0.38453
 C1590 C 0.85319 0.19401 0.40371
 C1591 C 0.80535 0.17916 0.37577
 C1592 C 0.79000 0.16472 0.41022
 C1593 C 0.80290 0.19746 0.42925
 C1594 C 0.81809 0.21215 0.39532
 H1595 H 0.85059 0.17997 0.46370
 H1596 H 0.82845 0.11959 0.42811
 H1597 H 0.87887 0.20699 0.40221
 H1598 H 0.79212 0.17915 0.35013
 H1599 H 0.76386 0.15280 0.41320
 H1600 H 0.81504 0.23933 0.38604
 C1601 C 0.71280 0.31829 0.39539
 C1602 C 0.67974 0.30570 0.37588
 C1603 C 0.66198 0.34040 0.38483
 C1604 C 0.69473 0.35339 0.40397
 C1605 C 0.64736 0.32529 0.41884
 C1606 C 0.66537 0.29022 0.41029
 C1607 C 0.69818 0.30298 0.42929
 C1608 C 0.68042 0.33771 0.43812
 H1609 H 0.73996 0.31525 0.38603
 H1610 H 0.67965 0.29256 0.35018
 H1611 H 0.70772 0.37907 0.40252
 H1612 H 0.62034 0.32865 0.42848
 H1613 H 0.65341 0.26409 0.41318
 H1614 H 0.68085 0.35056 0.46399
 C1615 C 0.71142 0.81798 0.89527
 C1616 C 0.67864 0.80508 0.87548
 C1617 C 0.66047 0.83958 0.88438
 C1618 C 0.69293 0.85286 0.90381
 C1619 C 0.64574 0.82423 0.91824
 C1620 C 0.66418 0.78937 0.90975
 C1621 C 0.69671 0.80244 0.92903
 C1622 C 0.67852 0.83695 0.93781
 H1623 H 0.73868 0.81525 0.88610
 H1624 H 0.67888 0.79202 0.84975
 H1625 H 0.70570 0.87866 0.90255
 H1626 H 0.61862 0.82729 0.92768
 H1627 H 0.65248 0.76311 0.91249
 H1628 H 0.67861 0.84972 0.96371
 C1629 C 0.18025 0.33627 0.93822
 C1630 C 0.19442 0.35214 0.90410
 C1631 C 0.16163 0.33920 0.88502
 C1632 C 0.14714 0.32390 0.91900
 C1633 C 0.17938 0.30456 0.87583
 C1634 C 0.21250 0.31711 0.89528
 C1635 C 0.19803 0.30160 0.92917
 C1636 C 0.16517 0.28888 0.91022
 H1637 H 0.18075 0.34900 0.96414
 H1638 H 0.20740 0.37782 0.90274
 H1639 H 0.12016 0.32717 0.92876
 H1640 H 0.17921 0.29157 0.85005
 H1641 H 0.23962 0.31415 0.88580
 H1642 H 0.15327 0.26272 0.91304
 C1643 C 0.16265 0.82070 0.43721
 C1644 C 0.17512 0.85366 0.41779
 C1645 C 0.16010 0.83885 0.38382
 C1646 C 0.14705 0.80621 0.40310
 C1647 C 0.19483 0.82106 0.37505
 C1648 C 0.21023 0.83559 0.40944
 C1649 C 0.19739 0.80289 0.42857
 C1650 C 0.18217 0.78811 0.39469
 H1651 H 0.14973 0.82041 0.46304
 H1652 H 0.17174 0.88072 0.42728
 H1653 H 0.12141 0.79317 0.40168
 H1654 H 0.20802 0.82101 0.34938
 H1655 H 0.23636 0.84755 0.41236
 H1656 H 0.18523 0.76091 0.38547
 C1657 C 0.68241 0.71303 0.60460
 C1658 C 0.64754 0.69459 0.59581
 C1659 C 0.66072 0.66202 0.61512
 C1660 C 0.69518 0.68013 0.62428
 C1661 C 0.67621 0.64746 0.58126
 C1662 C 0.66362 0.68035 0.56180
 C1663 C 0.69810 0.69846 0.57084
 C1664 C 0.71104 0.66582 0.59002
 H1665 H 0.68512 0.74023 0.61390
 H1666 H 0.62173 0.70732 0.59706
 H1667 H 0.70813 0.68022 0.65007
 H1668 H 0.67319 0.62039 0.57166
 H1669 H 0.65097 0.68059 0.53583
 H1670 H 0.73730 0.65409 0.58736
 C1671 C 0.67846 0.16166 0.06280
 C1672 C 0.69304 0.14596 0.09684
 C1673 C 0.66059 0.15923 0.11631
 C1674 C 0.64569 0.17434 0.08242
 C1675 C 0.67866 0.19383 0.12497
 C1676 C 0.71143 0.18097 0.10514
 C1677 C 0.69653 0.19629 0.07135
 C1678 C 0.66402 0.20931 0.09069
 H1679 H 0.67852 0.14876 0.03696
 H1680 H 0.70589 0.12022 0.09822
 H1681 H 0.61855 0.17114 0.07309
 H1682 H 0.67895 0.20705 0.15063
 H1683 H 0.73870 0.18386 0.11418
 H1684 H 0.65218 0.23550 0.08787
 C1685 C 0.16415 0.67923 0.06154
 C1686 C 0.17654 0.64620 0.08089
 C1687 C 0.16114 0.66076 0.11479
 C1688 C 0.14818 0.69347 0.09558
 C1689 C 0.19573 0.67861 0.12399
 C1690 C 0.21151 0.66432 0.08967
 C1691 C 0.19875 0.69710 0.07062
 C1692 C 0.18315 0.71164 0.10443
 H1693 H 0.15147 0.67963 0.03559
 H1694 H 0.17333 0.61918 0.07120
 H1695 H 0.12248 0.70643 0.09681
 H1696 H 0.20869 0.67856 0.14978
 H1697 H 0.23770 0.65246 0.08694
 H1698 H 0.18604 0.73879 0.11383
 C1699 C 0.18089 0.21245 0.60514
 C1700 C 0.14576 0.19428 0.59688
 C1701 C 0.15894 0.16166 0.61612
 C1702 C 0.19367 0.17951 0.62475
 C1703 C 0.17385 0.14687 0.58210
 C1704 C 0.16125 0.17980 0.56271
 C1705 C 0.19601 0.19765 0.57121
 C1706 C 0.20894 0.16497 0.59033
 H1707 H 0.18395 0.23966 0.61432
 H1708 H 0.12008 0.20724 0.59845
 H1709 H 0.20696 0.17960 0.65037
 H1710 H 0.17047 0.11979 0.57264
 H1711 H 0.14824 0.18007 0.53692
 H1712 H 0.23507 0.15303 0.58733
   
