data_POSCAR
  _audit_creation_date              2014-09-24
  _audit_creation_method            'ToBaCCo'
  _symmetry_space_group_name_H-M    'P1'
  _symmetry_Int_Tables_number       1
  _symmetry_cell_setting            triclinic
  loop_
  _symmetry_equiv_pos_as_xyz
 x,y,z
_cell_length_a 55.1802
_cell_length_b 55.3581
_cell_length_c 54.8238
_cell_angle_alpha 90.001000
_cell_angle_beta 90.194000
_cell_angle_gamma 89.686600
loop_
  _atom_site_label
  _atom_site_type_symbol
  _atom_site_fract_x
  _atom_site_fract_y
  _atom_site_fract_z
C1 C 0.36791 0.32989 0.35354
 C2 C 0.34877 0.32959 0.37021
 C3 C 0.33058 0.34678 0.36888
 C4 C 0.33136 0.36463 0.35068
 C5 C 0.35030 0.36485 0.33420
 C6 C 0.36872 0.34735 0.33563
 C7 C 0.38679 0.31415 0.34952
 N8 N 0.39933 0.32167 0.32963
 C9 C 0.38822 0.34193 0.32094
 C10 C 0.34566 0.38298 0.31771
 N11 N 0.32436 0.39397 0.32370
 C12 C 0.31553 0.38275 0.34386
 C13 C 0.31372 0.34087 0.38637
 N14 N 0.32132 0.32059 0.39826
 C15 C 0.34277 0.31360 0.38827
 H16 H 0.39011 0.29773 0.35968
 H17 H 0.39339 0.35142 0.30450
 H18 H 0.35685 0.38710 0.30216
 H19 H 0.29846 0.38710 0.35253
 H20 H 0.29678 0.35022 0.38979
 H21 H 0.35306 0.29760 0.39289
 C22 C 0.35662 0.83064 -0.15039
 C23 C 0.33718 0.83195 -0.13400
 C24 C 0.32006 0.85014 -0.13624
 C25 C 0.32213 0.86729 -0.15496
 C26 C 0.34124 0.86596 -0.17112
 C27 C 0.35863 0.84752 -0.16880
 C28 C 0.37511 0.81413 -0.15340
 N29 N 0.38853 0.82063 -0.17319
 C30 C 0.37835 0.84106 -0.18267
 C31 C 0.33788 0.88389 -0.18817
 N32 N 0.31715 0.89628 -0.18278
 C33 C 0.30749 0.88609 -0.16241
 C34 C 0.30268 0.84622 -0.11874
 N35 N 0.30884 0.82607 -0.10585
 C36 C 0.32994 0.81731 -0.11516
 H37 H 0.37773 0.79822 -0.14230
 H38 H 0.38454 0.85021 -0.19895
 H39 H 0.34954 0.88687 -0.20364
 H40 H 0.29061 0.89161 -0.15401
 H41 H 0.28656 0.85707 -0.11621
 H42 H 0.33907 0.80107 -0.10894
 C43 C 0.85876 0.33250 -0.15185
 C44 C 0.83913 0.33364 -0.13571
 C45 C 0.82160 0.35134 -0.13851
 C46 C 0.82340 0.36813 -0.15757
 C47 C 0.84270 0.36697 -0.17353
 C48 C 0.86056 0.34904 -0.17060
 C49 C 0.87748 0.31623 -0.15441
 N50 N 0.89091 0.32254 -0.17422
 C51 C 0.88044 0.34258 -0.18425
 C52 C 0.83899 0.38445 -0.19101
 N53 N 0.81784 0.39634 -0.18608
 C54 C 0.80832 0.38635 -0.16555
 C55 C 0.80405 0.34719 -0.12126
 N56 N 0.81053 0.32738 -0.10797
 C57 C 0.83198 0.31903 -0.11682
 H58 H 0.88014 0.30041 -0.14316
 H59 H 0.88642 0.35132 -0.20083
 H60 H 0.85079 0.38758 -0.20633
 H61 H 0.79127 0.39163 -0.15735
 H62 H 0.78749 0.35749 -0.11931
 H63 H 0.84136 0.30304 -0.11032
 C64 C 0.86274 0.83112 0.34692
 C65 C 0.84479 0.82958 0.36494
 C66 C 0.82634 0.84654 0.36566
 C67 C 0.82549 0.86521 0.34842
 C68 C 0.84310 0.86671 0.33067
 C69 C 0.86187 0.84952 0.32990
 C70 C 0.88198 0.81642 0.34086
 N71 N 0.89295 0.82540 0.32058
 C72 C 0.88053 0.84568 0.31376
 C73 C 0.83679 0.88560 0.31559
 N74 N 0.81577 0.89574 0.32374
 C75 C 0.80873 0.88314 0.34385
 C76 C 0.81089 0.83993 0.38405
 N77 N 0.81937 0.81933 0.39461
 C78 C 0.84019 0.81288 0.38295
 H79 H 0.88726 0.79993 0.35014
 H80 H 0.88393 0.85659 0.29782
 H81 H 0.84640 0.89114 0.29935
 H82 H 0.79222 0.88583 0.35404
 H83 H 0.79428 0.84913 0.38910
 H84 H 0.85103 0.79699 0.38664
 C85 C 0.63452 0.66958 0.34273
 C86 C 0.65110 0.67149 0.36204
 C87 C 0.66949 0.65463 0.36456
 C88 C 0.67155 0.63558 0.34779
 C89 C 0.65519 0.63374 0.32875
 C90 C 0.63654 0.65087 0.32619
 C91 C 0.61590 0.68426 0.33489
 N92 N 0.60652 0.67499 0.31395
 C93 C 0.61914 0.65450 0.30851
 C94 C 0.66252 0.61467 0.31447
 N95 N 0.68293 0.60478 0.32431
 C96 C 0.68859 0.61758 0.34474
 C97 C 0.68368 0.66191 0.38384
 N98 N 0.67443 0.68280 0.39309
 C99 C 0.65443 0.68875 0.37976
 H100 H 0.61000 0.70093 0.34338
 H101 H 0.61663 0.64333 0.29256
 H102 H 0.65408 0.60881 0.29763
 H103 H 0.70436 0.61485 0.35615
 H104 H 0.70003 0.65306 0.39030
 H105 H 0.64338 0.70475 0.38203
 C106 C 0.62944 0.16950 -0.15831
 C107 C 0.64628 0.17128 -0.13923
 C108 C 0.66461 0.15434 -0.13696
 C109 C 0.66631 0.13529 -0.15376
 C110 C 0.64969 0.13353 -0.17259
 C111 C 0.63112 0.15080 -0.17490
 C112 C 0.61083 0.18433 -0.16585
 N113 N 0.60098 0.17516 -0.18666
 C114 C 0.61350 0.15461 -0.19235
 C115 C 0.65666 0.11429 -0.18685
 N116 N 0.67706 0.10412 -0.17714
 C117 C 0.68312 0.11713 -0.15691
 C118 C 0.67910 0.16154 -0.11785
 N119 N 0.67000 0.18241 -0.10841
 C120 C 0.64990 0.18849 -0.12154
 H121 H 0.60530 0.20107 -0.15723
 H122 H 0.61094 0.14357 -0.20838
 H123 H 0.64791 0.10847 -0.20354
 H124 H 0.69902 0.11451 -0.14566
 H125 H 0.69552 0.15265 -0.11165
 H126 H 0.63905 0.20462 -0.11926
 C127 C 0.12991 0.66770 -0.15291
 C128 C 0.14661 0.66934 -0.13369
 C129 C 0.16543 0.65287 -0.13193
 C130 C 0.16777 0.63448 -0.14937
 C131 C 0.15129 0.63288 -0.16832
 C132 C 0.13221 0.64964 -0.17012
 C133 C 0.11109 0.68238 -0.16019
 N134 N 0.10170 0.67370 -0.18142
 C135 C 0.11475 0.65365 -0.18766
 C136 C 0.15898 0.61449 -0.18331
 N137 N 0.17972 0.60470 -0.17395
 C138 C 0.18525 0.61708 -0.15318
 C139 C 0.17982 0.66001 -0.11274
 N140 N 0.17021 0.68039 -0.10275
 C141 C 0.14988 0.68623 -0.11562
 H142 H 0.10517 0.69878 -0.15116
 H143 H 0.11275 0.64324 -0.20420
 H144 H 0.15048 0.60901 -0.20026
 H145 H 0.20118 0.61458 -0.14195
 H146 H 0.19662 0.65154 -0.10697
 H147 H 0.13875 0.70213 -0.11300
 C148 C 0.13441 0.17276 0.34277
 C149 C 0.15236 0.17179 0.36092
 C150 C 0.16966 0.15364 0.36054
 C151 C 0.16926 0.13620 0.34197
 C152 C 0.15158 0.13720 0.32411
 C153 C 0.13403 0.15558 0.32452
 C154 C 0.11623 0.18914 0.33777
 N155 N 0.10461 0.18226 0.31692
 C156 C 0.11561 0.16174 0.30874
 C157 C 0.15641 0.11908 0.30768
 N158 N 0.17662 0.10684 0.31513
 C159 C 0.18456 0.11738 0.33612
 C160 C 0.18556 0.15802 0.37941
 N161 N 0.17829 0.17838 0.39133
 C162 C 0.15800 0.18686 0.38001
 H163 H 0.11263 0.20524 0.34831
 H164 H 0.11089 0.15232 0.29209
 H165 H 0.14619 0.11594 0.29117
 H166 H 0.20073 0.11209 0.34607
 H167 H 0.20159 0.14745 0.38340
 H168 H 0.14843 0.20326 0.38498
 C169 C 0.63818 0.32419 0.64630
 C170 C 0.65774 0.32496 0.63003
 C171 C 0.67433 0.34347 0.63158
 C172 C 0.67171 0.36144 0.64937
 C173 C 0.65255 0.36069 0.66549
 C174 C 0.63561 0.34191 0.66391
 C175 C 0.62014 0.30754 0.64999
 N176 N 0.60656 0.31472 0.66940
 C177 C 0.61603 0.33571 0.67799
 C178 C 0.65557 0.37948 0.68171
 N179 N 0.67612 0.39163 0.67574
 C180 C 0.68598 0.38062 0.65593
 C181 C 0.69211 0.33894 0.61468
 N182 N 0.68678 0.31806 0.60276
 C183 C 0.66572 0.30944 0.61211
 H184 H 0.61785 0.29105 0.63972
 H185 H 0.60950 0.34538 0.69384
 H186 H 0.64392 0.38335 0.69703
 H187 H 0.70282 0.38585 0.64737
 H188 H 0.70799 0.34992 0.61201
 H189 H 0.65718 0.29273 0.60663
 C190 C 0.63892 0.82525 1.14826
 C191 C 0.65863 0.82579 1.13225
 C192 C 0.67564 0.84390 1.13408
 C193 C 0.67317 0.86177 1.15203
 C194 C 0.65378 0.86123 1.16794
 C195 C 0.63647 0.84280 1.16601
 C196 C 0.62068 0.80879 1.15159
 N197 N 0.60685 0.81593 1.17087
 C198 C 0.61664 0.83669 1.17985
 C199 C 0.65694 0.87982 1.18432
 N200 N 0.67776 0.89169 1.17871
 C201 C 0.68771 0.88066 1.15895
 C202 C 0.69335 0.83912 1.11709
 N203 N 0.68745 0.81851 1.10495
 C204 C 0.66620 0.81032 1.11420
 H205 H 0.61865 0.79229 1.14128
 H206 H 0.61025 0.84620 1.19587
 H207 H 0.64519 0.88370 1.19955
 H208 H 0.70474 0.88567 1.15066
 H209 H 0.70945 0.84977 1.11434
 H210 H 0.65717 0.79396 1.10844
 C211 C 0.13969 0.32747 1.15104
 C212 C 0.15912 0.32817 1.13464
 C213 C 0.17650 0.34590 1.13678
 C214 C 0.17474 0.36316 1.15541
 C215 C 0.15562 0.36245 1.17164
 C216 C 0.13791 0.34446 1.16940
 C217 C 0.12104 0.31141 1.15406
 N218 N 0.10761 0.31830 1.17374
 C219 C 0.11808 0.33846 1.18329
 C220 C 0.15931 0.38052 1.18847
 N221 N 0.18020 0.39225 1.18285
 C222 C 0.18966 0.38165 1.16262
 C223 C 0.19375 0.34149 1.11923
 N224 N 0.18724 0.32147 1.10640
 C225 C 0.16606 0.31327 1.11583
 H226 H 0.11840 0.29537 1.14318
 H227 H 0.11208 0.34767 1.19964
 H228 H 0.14776 0.38424 1.20390
 H229 H 0.20656 0.38674 1.15410
 H230 H 0.21004 0.35189 1.11664
 H231 H 0.15665 0.29726 1.10969
 C232 C 0.13789 0.82696 0.65077
 C233 C 0.15664 0.82833 0.63367
 C234 C 0.17311 0.84696 0.63488
 C235 C 0.17106 0.86453 0.65317
 C236 C 0.15264 0.86319 0.67011
 C237 C 0.13589 0.84422 0.66889
 C238 C 0.12021 0.81004 0.65479
 N239 N 0.10737 0.81658 0.67490
 C240 C 0.11697 0.83747 0.68362
 C241 C 0.15610 0.88168 0.68656
 N242 N 0.17618 0.89434 0.67994
 C243 C 0.18536 0.88377 0.65951
 C244 C 0.19015 0.84293 0.61709
 N245 N 0.18445 0.82223 0.60501
 C246 C 0.16391 0.81326 0.61510
 H247 H 0.11766 0.79384 0.64413
 H248 H 0.11092 0.84674 0.69991
 H249 H 0.14510 0.88484 0.70251
 H250 H 0.20176 0.88933 0.65032
 H251 H 0.20583 0.85408 0.61393
 H252 H 0.15528 0.79657 0.60970
 C253 C 0.36656 0.67287 0.65555
 C254 C 0.34863 0.67131 0.63746
 C255 C 0.33178 0.65293 0.63818
 C256 C 0.33269 0.63578 0.65703
 C257 C 0.35044 0.63732 0.67479
 C258 C 0.36745 0.65598 0.67405
 C259 C 0.38404 0.68983 0.66048
 N260 N 0.39556 0.68360 0.68157
 C261 C 0.38544 0.66287 0.68991
 C262 C 0.34604 0.61959 0.69170
 N263 N 0.32602 0.60712 0.68468
 C264 C 0.31775 0.61702 0.66348
 C265 C 0.31559 0.65698 0.61942
 N266 N 0.32227 0.67735 0.60729
 C267 C 0.34247 0.68615 0.61833
 H268 H 0.38729 0.70587 0.64979
 H269 H 0.39037 0.65391 0.70678
 H270 H 0.35627 0.61687 0.70830
 H271 H 0.30155 0.61140 0.65389
 H272 H 0.29975 0.64621 0.61566
 H273 H 0.35157 0.70266 0.61318
 C274 C 0.36599 0.17244 1.15929
 C275 C 0.34862 0.17147 1.14040
 C276 C 0.33243 0.15245 1.13950
 C277 C 0.33327 0.13420 1.15720
 C278 C 0.35031 0.13515 1.17556
 C279 C 0.36668 0.15431 1.17661
 C280 C 0.38350 0.18901 1.16593
 N281 N 0.39448 0.18135 1.18689
 C282 C 0.38429 0.15996 1.19324
 C283 C 0.34576 0.11643 1.19131
 N284 N 0.32637 0.10377 1.18286
 C285 C 0.31857 0.11476 1.16200
 C286 C 0.31684 0.15664 1.12042
 N287 N 0.32297 0.17776 1.10942
 C288 C 0.34246 0.18690 1.12157
 H289 H 0.38773 0.20559 1.15643
 H290 H 0.38922 0.14888 1.20871
 H291 H 0.35517 0.11343 1.20837
 H292 H 0.30264 0.10961 1.15168
 H293 H 0.30190 0.14510 1.11551
 H294 H 0.35114 0.20387 1.11733
 C295 C 0.87006 0.66880 1.15471
 C296 C 0.85203 0.66665 1.13678
 C297 C 0.83535 0.64820 1.13810
 C298 C 0.83649 0.63157 1.15736
 C299 C 0.85426 0.63365 1.17505
 C300 C 0.87118 0.65243 1.17371
 C301 C 0.88740 0.68605 1.15901
 N302 N 0.89913 0.68056 1.18019
 C303 C 0.88923 0.65999 1.18924
 C304 C 0.84989 0.61622 1.19237
 N305 N 0.82990 0.60354 1.18559
 C306 C 0.82164 0.61293 1.16419
 C307 C 0.81887 0.65169 1.11953
 N308 N 0.82516 0.67185 1.10688
 C309 C 0.84548 0.68102 1.11738
 H310 H 0.89038 0.70182 1.14784
 H311 H 0.89433 0.65161 1.20636
 H312 H 0.86015 0.61375 1.20901
 H313 H 0.80549 0.60703 1.15469
 H314 H 0.80305 0.64073 1.11630
 H315 H 0.85432 0.69752 1.11179
 C316 C 0.86850 0.16732 0.66138
 C317 C 0.85112 0.16665 0.64256
 C318 C 0.83367 0.14876 0.64242
 C319 C 0.83327 0.13135 0.66101
 C320 C 0.85032 0.13210 0.67942
 C321 C 0.86798 0.15012 0.67960
 C322 C 0.88677 0.18322 0.66733
 N323 N 0.89745 0.17590 0.68859
 C324 C 0.88566 0.15573 0.69623
 C325 C 0.84492 0.11413 0.69572
 N326 N 0.82493 0.10222 0.68769
 C327 C 0.81766 0.11278 0.66645
 C328 C 0.81846 0.15323 0.62304
 N329 N 0.82617 0.17336 0.61117
 C330 C 0.84610 0.18170 0.62313
 H331 H 0.89154 0.19935 0.65729
 H332 H 0.88869 0.14619 0.71317
 H333 H 0.85452 0.11082 0.71260
 H334 H 0.80174 0.10769 0.65610
 H335 H 0.80248 0.14288 0.61871
 H336 H 0.85586 0.19793 0.61835
 C337 C 0.32618 0.36793 0.65326
 C338 C 0.32386 0.35071 0.63463
 C339 C 0.34084 0.33240 0.63252
 C340 C 0.36035 0.33101 0.64891
 C341 C 0.36263 0.34795 0.66724
 C342 C 0.34541 0.36654 0.66945
 C343 C 0.31164 0.38676 0.66072
 N344 N 0.32147 0.39684 0.68107
 C345 C 0.34220 0.38448 0.68649
 C346 C 0.38220 0.34115 0.68133
 N347 N 0.39191 0.32051 0.67200
 C348 C 0.37850 0.31420 0.65213
 C349 C 0.33328 0.31750 0.61401
 N350 N 0.31212 0.32625 0.60469
 C351 C 0.30621 0.34661 0.61731
 H352 H 0.29469 0.39235 0.65240
 H353 H 0.35389 0.38756 0.70200
 H354 H 0.38851 0.35011 0.69770
 H355 H 0.38090 0.29813 0.64122
 H356 H 0.34217 0.30104 0.60809
 H357 H 0.28999 0.35736 0.61483
 C358 C 0.32897 0.86635 0.15413
 C359 C 0.32697 0.84955 0.13514
 C360 C 0.34387 0.83124 0.13291
 C361 C 0.36307 0.82948 0.14964
 C362 C 0.36505 0.84604 0.16842
 C363 C 0.34780 0.86463 0.17072
 C364 C 0.31424 0.88499 0.16150
 N365 N 0.32350 0.89472 0.18226
 C366 C 0.34413 0.88233 0.18803
 C367 C 0.38439 0.83891 0.18266
 N368 N 0.39422 0.81845 0.17301
 C369 C 0.38114 0.81259 0.15279
 C370 C 0.33639 0.81667 0.11404
 N371 N 0.31531 0.82567 0.10476
 C372 C 0.30946 0.84585 0.11768
 H373 H 0.29755 0.89074 0.15278
 H374 H 0.35544 0.88534 0.20385
 H375 H 0.39050 0.84754 0.19928
 H376 H 0.38376 0.79683 0.14148
 H377 H 0.34516 0.80019 0.10799
 H378 H 0.29327 0.85668 0.11545
 C379 C 0.82850 0.36609 0.15103
 C380 C 0.82604 0.34923 0.13210
 C381 C 0.84288 0.33084 0.12953
 C382 C 0.86245 0.32902 0.14585
 C383 C 0.86484 0.34567 0.16447
 C384 C 0.84774 0.36430 0.16711
 C385 C 0.81402 0.38480 0.15895
 N386 N 0.82392 0.39440 0.17951
 C387 C 0.84463 0.38187 0.18457
 C388 C 0.88430 0.33858 0.17845
 N389 N 0.89388 0.31799 0.16889
 C390 C 0.88053 0.31202 0.14887
 C391 C 0.83503 0.31633 0.11078
 N392 N 0.81384 0.32541 0.10184
 C393 C 0.80823 0.34559 0.11490
 H394 H 0.79706 0.39061 0.15080
 H395 H 0.85637 0.38458 0.20011
 H396 H 0.89061 0.34727 0.19497
 H397 H 0.88297 0.29608 0.13776
 H398 H 0.84372 0.29991 0.10447
 H399 H 0.79210 0.35653 0.11284
 C400 C 0.82709 0.86398 0.65598
 C401 C 0.82645 0.84652 0.63734
 C402 C 0.84515 0.82996 0.63539
 C403 C 0.86461 0.83043 0.65175
 C404 C 0.86526 0.84741 0.67012
 C405 C 0.84635 0.86432 0.67224
 C406 C 0.81102 0.88164 0.66338
 N407 N 0.81997 0.89259 0.68372
 C408 C 0.84166 0.88200 0.68914
 C409 C 0.88505 0.84199 0.68457
 N410 N 0.89646 0.82221 0.67526
 C411 C 0.88383 0.81498 0.65524
 C412 C 0.83943 0.81429 0.61695
 N413 N 0.81745 0.82056 0.60755
 C414 C 0.80951 0.84049 0.61980
 H415 H 0.79379 0.88596 0.65489
 H416 H 0.85332 0.88638 0.70433
 H417 H 0.89010 0.85102 0.70134
 H418 H 0.88725 0.79878 0.64477
 H419 H 0.85072 0.79940 0.61114
 H420 H 0.79235 0.84953 0.61657
 C421 C 0.66457 0.63959 0.65174
 C422 C 0.66344 0.65891 0.63526
 C423 C 0.64610 0.67680 0.63802
 C424 C 0.62960 0.67558 0.65740
 C425 C 0.63073 0.65652 0.67368
 C426 C 0.64836 0.63838 0.67082
 C427 C 0.68063 0.62068 0.65438
 N428 N 0.67454 0.60784 0.67461
 C429 C 0.65482 0.61867 0.68476
 C430 C 0.61351 0.66068 0.69128
 N431 N 0.60181 0.68180 0.68612
 C432 C 0.61166 0.69099 0.66541
 C433 C 0.65029 0.69394 0.62032
 N434 N 0.66976 0.68683 0.60685
 C435 C 0.67785 0.66542 0.61599
 H436 H 0.69616 0.61742 0.64289
 H437 H 0.64635 0.61306 0.70161
 H438 H 0.61036 0.64924 0.70689
 H439 H 0.60641 0.70796 0.65706
 H440 H 0.64028 0.71063 0.61817
 H441 H 0.69357 0.65563 0.60944
 C442 C 0.66884 0.13498 0.14934
 C443 C 0.66697 0.15373 0.13213
 C444 C 0.64849 0.17059 0.13402
 C445 C 0.63168 0.16906 0.15303
 C446 C 0.63349 0.15067 0.16992
 C447 C 0.65215 0.13352 0.16804
 C448 C 0.68578 0.11697 0.15319
 N449 N 0.67969 0.10461 0.17376
 C450 C 0.65915 0.11474 0.18286
 C451 C 0.61608 0.15475 0.18735
 N452 N 0.60362 0.17522 0.18142
 C453 C 0.61315 0.18405 0.16042
 C454 C 0.65197 0.18757 0.11615
 N455 N 0.67211 0.18151 0.10321
 C456 C 0.68141 0.16083 0.11299
 H457 H 0.70166 0.11382 0.14216
 H458 H 0.65033 0.10919 0.19954
 H459 H 0.61363 0.14404 0.20361
 H460 H 0.60755 0.20072 0.15168
 H461 H 0.64100 0.20360 0.11367
 H462 H 0.69793 0.15204 0.10703
 C463 C 0.17111 0.63636 0.15811
 C464 C 0.17055 0.65479 0.14063
 C465 C 0.15315 0.67277 0.14179
 C466 C 0.13596 0.67250 0.16066
 C467 C 0.13657 0.65427 0.17794
 C468 C 0.15429 0.63605 0.17665
 C469 C 0.18690 0.61749 0.16203
 N470 N 0.18005 0.60547 0.18250
 C471 C 0.16014 0.61687 0.19162
 C472 C 0.11866 0.65911 0.19463
 N473 N 0.10702 0.67985 0.18798
 C474 C 0.11759 0.68811 0.16722
 C475 C 0.15795 0.68872 0.12309
 N476 N 0.17776 0.68077 0.11063
 C477 C 0.18555 0.66001 0.12147
 H478 H 0.20273 0.61367 0.15114
 H479 H 0.15102 0.61194 0.20833
 H480 H 0.11502 0.64840 0.21064
 H481 H 0.11251 0.70460 0.15784
 H482 H 0.14809 0.70523 0.11912
 H483 H 0.20140 0.64960 0.11655
 C484 C 0.16453 0.13777 0.65144
 C485 C 0.16284 0.15658 0.63438
 C486 C 0.14518 0.17421 0.63684
 C487 C 0.12897 0.17328 0.65647
 C488 C 0.13065 0.15473 0.67327
 C489 C 0.14854 0.13684 0.67072
 C490 C 0.18099 0.11926 0.65455
 N491 N 0.17534 0.10699 0.67527
 C492 C 0.15550 0.11774 0.68523
 C493 C 0.11375 0.15919 0.69109
 N494 N 0.10173 0.18004 0.68557
 C495 C 0.11101 0.18871 0.66437
 C496 C 0.14896 0.19104 0.61877
 N497 N 0.16846 0.18401 0.60533
 C498 C 0.17703 0.16297 0.61491
 H499 H 0.19642 0.11585 0.64296
 H500 H 0.14726 0.11249 0.70231
 H501 H 0.11106 0.14816 0.70708
 H502 H 0.10541 0.20539 0.65565
 H503 H 0.13880 0.20764 0.61648
 H504 H 0.19303 0.15346 0.60861
 C505 C 0.33206 0.63656 0.34476
 C506 C 0.33307 0.65503 0.36220
 C507 C 0.35115 0.67207 0.36104
 C508 C 0.36847 0.67093 0.34247
 C509 C 0.36755 0.65277 0.32519
 C510 C 0.34910 0.63538 0.32633
 C511 C 0.31578 0.61831 0.34090
 N512 N 0.32246 0.60577 0.32063
 C513 C 0.34278 0.61627 0.31154
 C514 C 0.38599 0.65709 0.30883
 N515 N 0.39821 0.67718 0.31604
 C516 C 0.38724 0.68589 0.33642
 C517 C 0.34710 0.68844 0.37945
 N518 N 0.32697 0.68170 0.39196
 C519 C 0.31825 0.66130 0.38135
 H520 H 0.29982 0.61518 0.35176
 H521 H 0.35197 0.61066 0.29506
 H522 H 0.38984 0.64675 0.29253
 H523 H 0.39187 0.70245 0.34576
 H524 H 0.35773 0.70444 0.38272
 H525 H 0.30194 0.65202 0.38689
 C526 C 0.32954 0.13511 0.84008
 C527 C 0.32903 0.15218 0.85900
 C528 C 0.34610 0.17034 0.85978
 C529 C 0.36392 0.17174 0.84164
 C530 C 0.36439 0.15492 0.82303
 C531 C 0.34710 0.13648 0.82224
 C532 C 0.31443 0.11639 0.83384
 N533 N 0.32235 0.10633 0.81266
 C534 C 0.34239 0.11864 0.80547
 C535 C 0.38263 0.16143 0.80738
 N536 N 0.39332 0.18182 0.81594
 C537 C 0.38188 0.18824 0.83696
 C538 C 0.34037 0.18500 0.87921
 N539 N 0.32021 0.17626 0.89029
 C540 C 0.31318 0.15613 0.87793
 H541 H 0.29838 0.11084 0.84363
 H542 H 0.35252 0.11561 0.78892
 H543 H 0.38747 0.15234 0.79058
 H544 H 0.38567 0.20402 0.84788
 H545 H 0.34976 0.20130 0.88456
 H546 H 0.29736 0.14538 0.88170
 C547 C 0.82934 0.63229 0.83861
 C548 C 0.82887 0.64882 0.85800
 C549 C 0.84618 0.66668 0.85946
 C550 C 0.86417 0.66835 0.84157
 C551 C 0.86464 0.65211 0.82245
 C552 C 0.84709 0.63392 0.82096
 C553 C 0.81406 0.61394 0.83178
 N554 N 0.82201 0.60433 0.81041
 C555 C 0.84227 0.61655 0.80368
 C556 C 0.88312 0.65898 0.80720
 N557 N 0.89390 0.67900 0.81657
 C558 C 0.88229 0.68482 0.83765
 C559 C 0.84046 0.68096 0.87913
 N560 N 0.82003 0.67231 0.88972
 C561 C 0.81283 0.65257 0.87683
 H562 H 0.79791 0.60830 0.84135
 H563 H 0.85256 0.61370 0.78720
 H564 H 0.88805 0.65041 0.79016
 H565 H 0.88603 0.70020 0.84914
 H566 H 0.85001 0.69701 0.88494
 H567 H 0.79676 0.64204 0.88014
 C568 C 0.83296 0.13307 0.34302
 C569 C 0.83561 0.15061 0.36128
 C570 C 0.85390 0.16744 0.35970
 C571 C 0.86986 0.16697 0.33985
 C572 C 0.86734 0.14963 0.32189
 C573 C 0.84870 0.13253 0.32348
 C574 C 0.81591 0.11546 0.33917
 N575 N 0.82082 0.10411 0.31770
 C576 C 0.84094 0.11448 0.30808
 C577 C 0.88438 0.15441 0.30428
 N578 N 0.89728 0.17421 0.31115
 C579 C 0.88833 0.18200 0.33286
 C580 C 0.85104 0.18326 0.37884
 N581 N 0.83146 0.17638 0.39214
 C582 C 0.82193 0.15643 0.38138
 H583 H 0.80090 0.11176 0.35115
 H584 H 0.84900 0.10955 0.29078
 H585 H 0.88645 0.14456 0.28740
 H586 H 0.89451 0.19786 0.34257
 H587 H 0.86187 0.19917 0.38195
 H588 H 0.80562 0.14739 0.38728
 C589 C 0.67893 0.36179 0.34698
 C590 C 0.68096 0.34406 0.36512
 C591 C 0.66407 0.32580 0.36645
 C592 C 0.64487 0.32501 0.34960
 C593 C 0.64290 0.34247 0.33167
 C594 C 0.66009 0.36102 0.33034
 C595 C 0.69348 0.38080 0.34060
 N596 N 0.68406 0.39168 0.32044
 C597 C 0.66355 0.37961 0.31404
 C598 C 0.62343 0.33641 0.31720
 N599 N 0.61344 0.31572 0.32588
 C600 C 0.62659 0.30864 0.34573
 C601 C 0.67134 0.31056 0.38494
 N602 N 0.69228 0.31904 0.39484
 C603 C 0.69823 0.33963 0.38272
 H604 H 0.71016 0.38603 0.34956
 H605 H 0.65222 0.38339 0.29838
 H606 H 0.61725 0.34603 0.30113
 H607 H 0.62379 0.29247 0.35633
 H608 H 0.66240 0.29409 0.39047
 H609 H 0.71417 0.35045 0.38581
 C610 C 0.66998 0.86520 0.85209
 C611 C 0.67212 0.84747 0.87024
 C612 C 0.65467 0.82980 0.87231
 C613 C 0.63484 0.82959 0.85629
 C614 C 0.63275 0.84705 0.83838
 C615 C 0.65047 0.86497 0.83622
 C616 C 0.68510 0.88340 0.84469
 N617 N 0.67538 0.89423 0.82463
 C618 C 0.65411 0.88300 0.81936
 C619 C 0.61301 0.84116 0.82427
 N620 N 0.60303 0.82054 0.83312
 C621 C 0.61639 0.81335 0.85275
 C622 C 0.66231 0.81405 0.89014
 N623 N 0.68400 0.82164 0.89901
 C624 C 0.69012 0.84215 0.88685
 H625 H 0.70238 0.88800 0.85280
 H626 H 0.64235 0.88693 0.80407
 H627 H 0.60690 0.85057 0.80805
 H628 H 0.61387 0.79696 0.86309
 H629 H 0.65312 0.79777 0.89583
 H630 H 0.70670 0.85219 0.88910
 C631 C 0.17373 0.36637 0.84738
 C632 C 0.17491 0.34826 0.86520
 C633 C 0.15721 0.33069 0.86629
 C634 C 0.13789 0.33111 0.84944
 C635 C 0.13684 0.34907 0.83194
 C636 C 0.15485 0.36672 0.83087
 C637 C 0.18911 0.38484 0.84115
 N638 N 0.18003 0.39639 0.82120
 C639 C 0.15899 0.38531 0.81483
 C640 C 0.11731 0.34448 0.81717
 N641 N 0.10607 0.32421 0.82522
 C642 C 0.11872 0.31581 0.84489
 C643 C 0.16392 0.31492 0.88461
 N644 N 0.18518 0.32252 0.89465
 C645 C 0.19195 0.34293 0.88271
 H646 H 0.20607 0.38922 0.85006
 H647 H 0.14768 0.38971 0.79933
 H648 H 0.11253 0.35476 0.80110
 H649 H 0.11463 0.29937 0.85471
 H650 H 0.15431 0.29879 0.89000
 H651 H 0.20831 0.35309 0.88580
 C652 C 0.17165 0.86898 0.34802
 C653 C 0.17347 0.85170 0.36663
 C654 C 0.15619 0.83386 0.36860
 C655 C 0.13679 0.83306 0.35202
 C656 C 0.13503 0.85010 0.33367
 C657 C 0.15262 0.86817 0.33161
 C658 C 0.18674 0.88722 0.34069
 N659 N 0.17749 0.89751 0.32013
 C660 C 0.15651 0.88590 0.31449
 C661 C 0.11565 0.84380 0.31923
 N662 N 0.10551 0.82338 0.32834
 C663 C 0.11847 0.81667 0.34841
 C664 C 0.16355 0.81862 0.38703
 N665 N 0.18489 0.82673 0.39634
 C666 C 0.19107 0.84702 0.38385
 H667 H 0.20371 0.89224 0.34923
 H668 H 0.14511 0.88940 0.29883
 H669 H 0.10984 0.85287 0.30270
 H670 H 0.11572 0.80053 0.35910
 H671 H 0.15446 0.80232 0.39281
 H672 H 0.20748 0.85729 0.38626
 O673 O 0.21996 0.97807 0.25025
 O674 O 0.25608 1.02445 0.21916
 O675 O 0.25608 0.97735 0.22006
 O676 O 0.22019 1.02495 0.24970
 O677 O 0.24617 1.02550 0.28041
 O678 O 0.28194 0.97740 0.25090
 O679 O 0.28213 1.02423 0.24982
 O680 O 0.24583 0.97832 0.28107
 Cu681 Cu 0.23550 1.00120 0.23167
 Cu682 Cu 0.26658 1.00142 0.26870
 C683 C 0.22679 0.97024 0.27094
 C684 C 0.27533 1.03217 0.22916
 C685 C 0.27503 0.96916 0.23042
 C686 C 0.22706 1.03341 0.27009
 O687 O 0.25028 0.52493 0.78655
 O688 O 0.28365 0.47858 0.75232
 O689 O 0.28416 0.52548 0.75356
 O690 O 0.24915 0.47798 0.78422
 O691 O 0.22148 0.48021 0.75511
 O692 O 0.25679 0.52703 0.72412
 O693 O 0.25600 0.47990 0.72314
 O694 O 0.22298 0.52711 0.75709
 Cu695 Cu 0.26957 0.50163 0.77212
 Cu696 Cu 0.23656 0.50378 0.73690
 C697 C 0.23097 0.53396 0.77771
 C698 C 0.27545 0.47114 0.73203
 C699 C 0.27648 0.53429 0.73356
 C700 C 0.22934 0.47095 0.77481
 O701 O 0.74854 -0.02325 0.28027
 O702 O 0.71803 0.02353 0.24346
 O703 O 0.71575 -0.02346 0.24612
 O704 O 0.74960 0.02357 0.27862
 O705 O 0.77872 0.02162 0.25117
 O706 O 0.74491 -0.02609 0.21876
 O707 O 0.74704 0.02102 0.21591
 O708 O 0.77774 -0.02550 0.25291
 Cu709 Cu 0.73003 0.00033 0.26481
 Cu710 Cu 0.76501 -0.00248 0.23191
 C711 C 0.76838 -0.03235 0.27286
 C712 C 0.72741 0.03038 0.22349
 C713 C 0.72459 -0.03299 0.22704
 C714 C 0.76985 0.03071 0.27050
 O715 O 0.75095 0.47713 0.77292
 O716 O 0.71683 0.52461 0.74017
 O717 O 0.71551 0.47734 0.74159
 O718 O 0.75179 0.52420 0.77208
 O719 O 0.77823 0.52301 0.74195
 O720 O 0.74249 0.47552 0.71199
 O721 O 0.74325 0.52270 0.71007
 O722 O 0.77785 0.47616 0.74320
 Cu723 Cu 0.73106 0.50098 0.75966
 Cu724 Cu 0.76306 0.49923 0.72374
 C725 C 0.77026 0.46859 0.76364
 C726 C 0.72434 0.53184 0.71955
 C727 C 0.72304 0.46817 0.72176
 C728 C 0.77115 0.53165 0.76220
 O729 O 0.28129 0.52260 0.25428
 O730 O 0.24762 0.47439 0.22256
 O731 O 0.24769 0.52142 0.22113
 O732 O 0.28229 0.47555 0.25470
 O733 O 0.25441 0.47501 0.28347
 O734 O 0.22045 0.52269 0.25050
 O735 O 0.21968 0.47550 0.25127
 O736 O 0.25409 0.52210 0.28371
 Cu737 Cu 0.26747 0.49842 0.23524
 Cu738 Cu 0.23438 0.49885 0.27015
 C739 C 0.27335 0.53053 0.27451
 C740 C 0.22786 0.46677 0.23153
 C741 C 0.22839 0.53016 0.23012
 C742 C 0.27427 0.46726 0.27466
 O743 O 0.71688 0.97608 0.75547
 O744 O 0.75328 1.02234 0.72435
 O745 O 0.75192 0.97513 0.72372
 O746 O 0.71873 1.02320 0.75654
 O747 O 0.74556 1.02122 0.78644
 O748 O 0.77891 0.97395 0.75351
 O749 O 0.78005 1.02076 0.75433
 O750 O 0.74409 0.97430 0.78505
 Cu751 Cu 0.73247 0.99934 0.73701
 Cu752 Cu 0.76484 0.99742 0.77282
 C753 C 0.72438 0.96721 0.77550
 C754 C 0.77286 1.02950 0.73413
 C755 C 0.77114 0.96635 0.73310
 C756 C 0.72654 1.03040 0.77711
 O757 O 0.75293 0.52162 0.28662
 O758 O 0.78624 0.47507 0.25234
 O759 O 0.78728 0.52194 0.25422
 O760 O 0.75160 0.47452 0.28416
 O761 O 0.72415 0.47688 0.25485
 O762 O 0.76014 0.52380 0.22458
 O763 O 0.75878 0.47680 0.22300
 O764 O 0.72583 0.52394 0.25698
 Cu765 Cu 0.77221 0.49811 0.27234
 Cu766 Cu 0.73947 0.50061 0.23690
 C767 C 0.73381 0.53087 0.27758
 C768 C 0.77813 0.46787 0.23191
 C769 C 0.77981 0.53091 0.23422
 C770 C 0.73190 0.46747 0.27452
 O771 O 0.27908 0.02380 0.74542
 O772 O 0.24329 -0.02378 0.71562
 O773 O 0.24454 0.02326 0.71306
 O774 O 0.27852 -0.02308 0.74696
 O775 O 0.25143 -0.02170 0.77648
 O776 O 0.21787 0.02562 0.74290
 O777 O 0.21614 -0.02148 0.74503
 O778 O 0.25241 0.02546 0.77531
 Cu779 Cu 0.26402 -0.00012 0.72726
 Cu780 Cu 0.23175 0.00219 0.76291
 C781 C 0.27186 0.03273 0.76549
 C782 C 0.22369 -0.03086 0.72532
 C783 C 0.22556 0.03253 0.72223
 C784 C 0.27073 -0.03047 0.76738
 O785 O 0.25558 0.21741 0.97629
 O786 O 0.22537 0.25319 1.02394
 O787 O 0.22458 0.25289 0.97640
 O788 O 0.25662 0.21802 1.02391
 O789 O 0.28665 0.24420 1.02352
 O790 O 0.25461 0.27907 0.97603
 O791 O 0.25541 0.27937 1.02343
 O792 O 0.28562 0.24357 0.97559
 Cu793 Cu 0.23757 0.23271 1.00020
 Cu794 Cu 0.27365 0.26412 0.99954
 C795 C 0.27561 0.22452 0.96759
 C796 C 0.23525 0.27232 1.03189
 C797 C 0.23418 0.27199 0.96811
 C798 C 0.27690 0.22529 1.03206
 O799 O 0.25556 0.78278 0.47670
 O800 O 0.28601 0.74657 0.52430
 O801 O 0.28825 0.74872 0.47679
 O802 O 0.25496 0.78183 0.52391
 O803 O 0.22569 0.75482 0.52256
 O804 O 0.25885 0.72193 0.47437
 O805 O 0.25688 0.71948 0.52194
 O806 O 0.22613 0.75594 0.47511
 Cu807 Cu 0.27420 0.76760 0.50057
 Cu808 Cu 0.23897 0.73530 0.49829
 C809 C 0.23552 0.77556 0.46792
 C810 C 0.27651 0.72692 0.53136
 C811 C 0.27926 0.72985 0.46735
 C812 C 0.23472 0.77405 0.53137
 O813 O 0.26996 0.75884 -0.02344
 O814 O 0.24014 0.72385 0.02464
 O815 O 0.23804 0.72459 -0.02276
 O816 O 0.27180 0.75838 0.02400
 O817 O 0.24252 0.78570 0.02511
 O818 O 0.20833 0.75138 -0.02072
 O819 O 0.21090 0.75112 0.02688
 O820 O 0.24033 0.78578 -0.02230
 Cu821 Cu 0.25793 0.73869 0.00046
 Cu822 Cu 0.22253 0.77120 0.00238
 C823 C 0.26022 0.77821 -0.03118
 C824 C 0.22059 0.73150 0.03412
 C825 C 0.21740 0.73224 -0.02971
 C826 C 0.26292 0.77785 0.03248
 O827 O 0.21336 0.24851 0.47391
 O828 O 0.24291 0.28449 0.52207
 O829 O 0.24616 0.28211 0.47478
 O830 O 0.20952 0.25135 0.52142
 O831 O 0.23788 0.22328 0.52510
 O832 O 0.27444 0.25402 0.47885
 O833 O 0.27108 0.25623 0.52582
 O834 O 0.24172 0.22048 0.47782
 Cu835 Cu 0.22506 0.26939 0.49767
 Cu836 Cu 0.25906 0.23564 0.50226
 C837 C 0.22264 0.22842 0.46753
 C838 C 0.26214 0.27646 0.53208
 C839 C 0.26667 0.27333 0.46899
 C840 C 0.21757 0.23216 0.53133
 O841 O 0.75580 0.77526 0.97658
 O842 O 0.78717 0.73888 1.02312
 O843 O 0.78595 0.73907 0.97534
 O844 O 0.75668 0.77473 1.02378
 O845 O 0.72626 0.74896 1.02414
 O846 O 0.75549 0.71338 0.97582
 O847 O 0.75678 0.71310 1.02338
 O848 O 0.72533 0.74956 0.97683
 Cu849 Cu 0.77457 0.75947 0.99965
 Cu850 Cu 0.73794 0.72862 1.00007
 C851 C 0.73514 0.76871 0.96887
 C852 C 0.77724 0.71995 1.03139
 C853 C 0.77560 0.72028 0.96716
 C854 C 0.73639 0.76794 1.03214
 O855 O 0.76520 0.21608 0.47598
 O856 O 0.73117 0.24921 0.52328
 O857 O 0.73245 0.24991 0.47592
 O858 O 0.76319 0.21453 0.52367
 O859 O 0.79202 0.24192 0.52608
 O860 O 0.76171 0.27694 0.47738
 O861 O 0.76012 0.27655 0.52462
 O862 O 0.79447 0.24301 0.47836
 Cu863 Cu 0.74516 0.22962 0.49956
 Cu864 Cu 0.78007 0.26225 0.50179
 C865 C 0.78556 0.22407 0.46894
 C866 C 0.73981 0.26869 0.53185
 C867 C 0.74182 0.26945 0.46845
 C868 C 0.78261 0.22228 0.53330
 O869 O 0.73767 0.22500 0.02082
 O870 O 0.76951 0.25923 -0.02689
 O871 O 0.77026 0.25878 0.02063
 O872 O 0.73697 0.22539 -0.02680
 O873 O 0.70813 0.25319 -0.02621
 O874 O 0.74138 0.28654 0.02111
 O875 O 0.74061 0.28696 -0.02627
 O876 O 0.70881 0.25277 0.02116
 Cu877 Cu 0.75651 0.23930 -0.00312
 Cu878 Cu 0.72183 0.27264 -0.00248
 C879 C 0.71776 0.23311 0.02914
 C880 C 0.76047 0.27893 -0.03472
 C881 C 0.76148 0.27836 0.02896
 C882 C 0.71688 0.23365 -0.03463
 O883 O 0.71322 0.75298 0.47596
 O884 O 0.74783 0.78462 0.52386
 O885 O 0.74902 0.78338 0.47619
 O886 O 0.71226 0.75399 0.52354
 O887 O 0.73834 0.72360 0.52454
 O888 O 0.77524 0.75314 0.47760
 O889 O 0.77371 0.75410 0.52496
 O890 O 0.73959 0.72285 0.47706
 Cu891 Cu 0.72795 0.77181 0.49973
 Cu892 Cu 0.75932 0.73538 0.50117
 C893 C 0.72061 0.73259 0.46826
 C894 C 0.76663 0.77456 0.53272
 C895 C 0.76836 0.77324 0.46877
 C896 C 0.71915 0.73380 0.53221
 O897 O 1.02349 0.27891 0.23764
 O898 O 0.97584 0.24470 0.26962
 O899 O 1.02271 0.24733 0.27255
 O900 O 0.97607 0.27797 0.23609
 O901 O 0.97794 0.24913 0.20832
 O902 O 1.02561 0.21870 0.24465
 O903 O 0.97856 0.21592 0.24187
 O904 O 1.02515 0.25033 0.20962
 Cu905 Cu 0.99925 0.26517 0.25670
 Cu906 Cu 1.00205 0.23066 0.22331
 C907 C 1.03251 0.27030 0.21814
 C908 C 0.96918 0.22438 0.26119
 C909 C 1.03222 0.22787 0.26487
 C910 C 0.96882 0.26877 0.21618
 O911 O 0.52351 0.27741 0.73658
 O912 O 0.47631 0.24750 0.77247
 O913 O 0.52328 0.24449 0.77041
 O914 O 0.47610 0.27890 0.73732
 O915 O 0.47458 0.25006 0.70956
 O916 O 0.52081 0.21541 0.74297
 O917 O 0.47382 0.21867 0.74476
 O918 O 0.52183 0.24829 0.70911
 Cu919 Cu 0.50004 0.26503 0.75691
 Cu920 Cu 0.49756 0.23024 0.72380
 C921 C 0.53094 0.26789 0.71690
 C922 C 0.46693 0.22806 0.76475
 C923 C 0.52998 0.22399 0.76235
 C924 C 0.46719 0.27020 0.71782
 O925 O -0.02662 0.28163 0.76109
 O926 O 0.02133 0.24841 0.72835
 O927 O -0.02578 0.24763 0.72843
 O928 O 0.02073 0.28290 0.76062
 O929 O 0.02252 0.25551 0.78983
 O930 O -0.02447 0.22052 0.75795
 O931 O 0.02233 0.22118 0.75777
 O932 O -0.02492 0.25470 0.79075
 Cu933 Cu -0.00269 0.26796 0.74173
 Cu934 Cu -0.00110 0.23533 0.77712
 C935 C -0.03402 0.27373 0.78149
 C936 C 0.02989 0.22903 0.73743
 C937 C -0.03292 0.22788 0.73765
 C938 C 0.02978 0.27517 0.78049
 O939 O 0.47814 0.22000 0.25510
 O940 O 0.52773 0.25012 0.28758
 O941 O 0.48079 0.25236 0.28901
 O942 O 0.52511 0.21708 0.25413
 O943 O 0.52603 0.24557 0.22597
 O944 O 0.48044 0.28047 0.26044
 O945 O 0.52798 0.27882 0.25963
 O946 O 0.47876 0.24783 0.22629
 Cu947 Cu 0.50291 0.23206 0.27427
 Cu948 Cu 0.50339 0.26608 0.24026
 C949 C 0.46990 0.22866 0.23526
 C950 C 0.53637 0.26962 0.27919
 C951 C 0.47281 0.27226 0.28064
 C952 C 0.53326 0.22530 0.23418
 O953 O 1.02259 0.71523 0.74771
 O954 O 0.97718 0.75103 0.71440
 O955 O 1.02414 0.74860 0.71439
 O956 O 0.97554 0.71813 0.74814
 O957 O 0.97759 0.74610 0.77677
 O958 O 1.02545 0.77706 0.74257
 O959 O 0.97819 0.77906 0.74304
 O960 O 1.02467 0.74365 0.77588
 Cu961 Cu 0.99970 0.73041 0.72830
 Cu962 Cu 1.00166 0.76432 0.76242
 C963 C 1.03147 0.72335 0.76743
 C964 C 0.96985 0.77107 0.72299
 C965 C 1.03304 0.76806 0.72269
 C966 C 0.96832 0.72691 0.76827
 O967 O 0.47929 0.74354 0.27178
 O968 O 0.52570 0.77608 0.23714
 O969 O 0.47830 0.77646 0.23796
 O970 O 0.52623 0.74281 0.27048
 O971 O 0.52501 0.71435 0.24229
 O972 O 0.47757 0.74818 0.20958
 O973 O 0.52479 0.74774 0.20883
 O974 O 0.47787 0.71528 0.24340
 Cu975 Cu 0.50246 0.76262 0.25714
 Cu976 Cu 0.50123 0.72858 0.22314
 C977 C 0.47074 0.72385 0.26366
 C978 C 0.53333 0.76738 0.21715
 C979 C 0.46968 0.76796 0.21825
 C980 C 0.53373 0.72279 0.26196
 O981 O -0.02235 0.78527 0.25585
 O982 O 0.02577 0.74995 0.22577
 O983 O -0.02126 0.75135 0.22290
 O984 O 0.02487 0.78342 0.25892
 O985 O 0.02213 0.75580 0.28782
 O986 O -0.02380 0.72362 0.25172
 O987 O 0.02321 0.72227 0.25463
 O988 O -0.02509 0.75745 0.28455
 Cu989 Cu 0.00197 0.77033 0.23801
 Cu990 Cu -0.00115 0.73704 0.27261
 C991 C -0.03203 0.77734 0.27523
 C992 C 0.03273 0.73008 0.23511
 C993 C -0.03034 0.73196 0.23114
 C994 C 0.03152 0.77496 0.27943
 O995 O 0.47356 0.78294 0.76300
 O996 O 0.52205 0.75043 0.73003
 O997 O 0.47514 0.75202 0.72743
 O998 O 0.52105 0.78274 0.76449
 O999 O 0.51983 0.75330 0.79162
 O1000 O 0.47336 0.72272 0.75469
 O1001 O 0.52032 0.72104 0.75717
 O1002 O 0.47260 0.75364 0.79028
 Cu1003 Cu 0.49812 0.77007 0.74359
 Cu1004 Cu 0.49639 0.73476 0.77621
 C1005 C 0.46469 0.77368 0.78221
 C1006 C 0.52932 0.73005 0.73796
 C1007 C 0.46641 0.73214 0.73470
 C1008 C 0.52848 0.77320 0.78420
 C1009 C 0.41915 0.30864 0.31736
 C1010 C 0.44036 0.32490 0.30977
 C1011 C 0.45835 0.31288 0.29770
 C1012 C 0.45346 0.28574 0.29437
 C1013 C 0.44898 0.27634 0.32039
 C1014 C 0.43114 0.28834 0.33248
 C1015 C 0.41072 0.29643 0.29370
 C1016 C 0.42865 0.28448 0.28167
 H1017 H 0.44129 0.34406 0.31382
 H1018 H 0.47465 0.32178 0.29141
 H1019 H 0.45966 0.26223 0.32909
 H1020 H 0.42725 0.28447 0.35143
 H1021 H 0.39217 0.29710 0.28706
 H1022 H 0.42545 0.27488 0.26470
 C1023 C 0.40805 0.80826 0.81636
 C1024 C 0.43044 0.82432 0.81260
 C1025 C 0.44929 0.81282 0.80144
 C1026 C 0.44414 0.78629 0.79508
 C1027 C 0.43664 0.77477 0.81947
 C1028 C 0.41786 0.78622 0.83069
 C1029 C 0.40194 0.79835 0.79088
 C1030 C 0.42080 0.78693 0.77978
 H1031 H 0.43148 0.84300 0.81852
 H1032 H 0.46640 0.82168 0.79779
 H1033 H 0.44580 0.75940 0.82772
 H1034 H 0.41171 0.78041 0.84847
 H1035 H 0.38419 0.80001 0.78241
 H1036 H 0.41917 0.77884 0.76181
 C1037 C -0.08976 0.30982 0.81545
 C1038 C -0.06783 0.32588 0.80960
 C1039 C -0.04927 0.31384 0.79853
 C1040 C -0.05422 0.28685 0.79436
 C1041 C -0.06049 0.27702 0.81983
 C1042 C -0.07898 0.28904 0.83097
 C1043 C -0.09673 0.29803 0.79106
 C1044 C -0.07817 0.28609 0.78006
 H1045 H -0.06684 0.34494 0.81412
 H1046 H -0.03246 0.32264 0.79355
 H1047 H -0.05063 0.26253 0.82885
 H1048 H -0.08412 0.28471 0.84950
 H1049 H -0.11480 0.29894 0.78320
 H1050 H -0.08036 0.27683 0.76275
 C1051 C -0.08778 0.81411 0.30854
 C1052 C -0.07687 0.82790 0.28667
 C1053 C -0.05838 0.81584 0.27555
 C1054 C -0.05228 0.79124 0.28722
 C1055 C -0.04741 0.79707 0.31420
 C1056 C -0.06594 0.80905 0.32536
 C1057 C -0.09486 0.78933 0.29815
 C1058 C -0.07631 0.77740 0.28707
 H1059 H -0.08211 0.84584 0.28076
 H1060 H -0.04856 0.82354 0.26032
 H1061 H -0.03067 0.79248 0.32362
 H1062 H -0.06500 0.81473 0.34429
 H1063 H -0.11299 0.78191 0.29926
 H1064 H -0.07860 0.75977 0.27875
 C1065 C 0.58720 0.68671 0.29958
 C1066 C 0.59464 0.71178 0.29033
 C1067 C 0.57688 0.72353 0.27773
 C1068 C 0.55324 0.70918 0.27544
 C1069 C 0.56088 0.68490 0.26399
 C1070 C 0.57863 0.67308 0.27661
 C1071 C 0.56399 0.69106 0.31440
 C1072 C 0.54623 0.70283 0.30176
 H1073 H 0.61243 0.71952 0.29330
 H1074 H 0.57947 0.74136 0.26997
 H1075 H 0.55282 0.67739 0.24759
 H1076 H 0.58525 0.65558 0.27076
 H1077 H 0.56166 0.68512 0.33311
 H1078 H 0.52868 0.70698 0.30968
 C1079 C 0.58276 0.18665 0.79986
 C1080 C 0.56021 0.19274 0.81518
 C1081 C 0.54270 0.20498 0.80263
 C1082 C 0.54919 0.20996 0.77587
 C1083 C 0.57359 0.22311 0.77684
 C1084 C 0.59114 0.21094 0.78933
 C1085 C 0.57267 0.17259 0.77773
 C1086 C 0.55518 0.18488 0.76520
 H1087 H 0.55806 0.18755 0.83414
 H1088 H 0.52561 0.21028 0.81088
 H1089 H 0.57684 0.24045 0.76826
 H1090 H 0.60940 0.21786 0.79138
 H1091 H 0.57769 0.15435 0.77264
 H1092 H 0.54598 0.17705 0.74959
 C1093 C 1.08365 0.68539 0.80505
 C1094 C 1.09222 0.70979 0.79495
 C1095 C 1.07485 0.72214 0.78240
 C1096 C 1.05044 0.70905 0.78096
 C1097 C 1.05649 0.68411 0.77003
 C1098 C 1.07379 0.67162 0.78264
 C1099 C 1.06092 0.69132 0.82017
 C1100 C 1.04360 0.70375 0.80756
 H1101 H 1.11047 0.71664 0.79732
 H1102 H 1.07825 0.73957 0.77405
 H1103 H 1.04739 0.67647 0.75426
 H1104 H 1.07875 0.65337 0.77748
 H1105 H 1.05851 0.68586 0.83903
 H1106 H 1.02641 0.70895 0.81565
 C1107 C 1.08600 0.19432 0.30452
 C1108 C 1.06425 0.17796 0.29870
 C1109 C 1.04639 0.18915 0.28566
 C1110 C 1.05177 0.21569 0.27965
 C1111 C 1.05689 0.22746 0.30460
 C1112 C 1.07471 0.21631 0.31769
 C1113 C 1.09429 0.20415 0.27968
 C1114 C 1.07638 0.21527 0.26670
 H1115 H 1.06288 0.15932 0.30464
 H1116 H 1.02978 0.18006 0.28042
 H1117 H 1.04687 0.24278 0.31182
 H1118 H 1.07915 0.22229 0.33596
 H1119 H 1.11273 0.20264 0.27301
 H1120 H 1.07951 0.22326 0.24891
 C1121 C 0.58641 0.30174 0.68098
 C1122 C 0.59290 0.29310 0.70680
 C1123 C 0.57446 0.28174 0.71841
 C1124 C 0.55110 0.27996 0.70321
 C1125 C 0.54514 0.30609 0.69573
 C1126 C 0.56360 0.31748 0.68407
 C1127 C 0.57738 0.27892 0.66764
 C1128 C 0.55893 0.26754 0.67935
 H1129 H 0.61058 0.29559 0.71514
 H1130 H 0.57637 0.27453 0.73674
 H1131 H 0.52776 0.31477 0.69904
 H1132 H 0.56203 0.33588 0.67739
 H1133 H 0.58409 0.27244 0.65028
 H1134 H 0.55041 0.25149 0.67196
 C1135 C 0.58790 0.80326 0.18173
 C1136 C 0.56554 0.81911 0.18712
 C1137 C 0.54736 0.80711 0.19865
 C1138 C 0.55310 0.78035 0.20371
 C1139 C 0.55956 0.76981 0.17857
 C1140 C 0.57765 0.78180 0.16695
 C1141 C 0.59529 0.79242 0.20647
 C1142 C 0.57712 0.78049 0.21793
 H1143 H 0.56396 0.83798 0.18193
 H1144 H 0.53030 0.81576 0.20335
 H1145 H 0.55004 0.75490 0.17006
 H1146 H 0.58278 0.77705 0.14851
 H1147 H 0.61335 0.79390 0.21422
 H1148 H 0.57965 0.77180 0.23550
 C1149 C 1.08824 0.30596 0.18426
 C1150 C 1.06639 0.32234 0.19022
 C1151 C 1.04779 0.31056 0.20134
 C1152 C 1.05267 0.28348 0.20545
 C1153 C 1.05883 0.27365 0.17993
 C1154 C 1.07730 0.28540 0.16875
 C1155 C 1.09524 0.29405 0.20862
 C1156 C 1.07665 0.28235 0.21969
 H1157 H 1.06545 0.34142 0.18573
 H1158 H 1.03103 0.31959 0.20639
 H1159 H 1.04876 0.25947 0.17080
 H1160 H 1.08216 0.28118 0.15010
 H1161 H 1.11334 0.29468 0.21642
 H1162 H 1.07886 0.27299 0.23696
 C1163 C 1.08761 0.80322 0.68670
 C1164 C 1.09466 0.79415 0.71224
 C1165 C 1.07654 0.78237 0.72397
 C1166 C 1.05294 0.78067 0.70913
 C1167 C 1.04659 0.80689 0.70228
 C1168 C 1.06473 0.81869 0.69052
 C1169 C 1.07856 0.78058 0.67308
 C1170 C 1.06046 0.76880 0.68489
 H1171 H 1.11247 0.79665 0.72029
 H1172 H 1.07883 0.77480 0.74210
 H1173 H 1.02921 0.81533 0.70609
 H1174 H 1.06287 0.83720 0.68426
 H1175 H 1.08499 0.77444 0.65550
 H1176 H 1.05200 0.75280 0.67732
 C1177 C 0.41442 0.69706 0.69474
 C1178 C 0.42392 0.71999 0.68207
 C1179 C 0.44120 0.73175 0.69520
 C1180 C 0.44747 0.71956 0.71971
 C1181 C 0.42313 0.71742 0.73298
 C1182 C 0.40583 0.70568 0.71992
 C1183 C 0.43721 0.68176 0.69978
 C1184 C 0.45451 0.69354 0.71287
 H1185 H 0.41827 0.72641 0.66428
 H1186 H 0.44982 0.74801 0.68848
 H1187 H 0.41971 0.72478 0.75102
 H1188 H 0.38761 0.70297 0.72674
 H1189 H 0.43962 0.66337 0.69334
 H1190 H 0.47174 0.68521 0.71764
 C1191 C 0.41418 0.19385 0.19999
 C1192 C 0.41997 0.18368 0.22559
 C1193 C 0.43839 0.19517 0.23711
 C1194 C 0.44942 0.21600 0.22234
 C1195 C 0.45680 0.20456 0.19792
 C1196 C 0.43837 0.19298 0.18623
 C1197 C 0.40922 0.22086 0.20443
 C1198 C 0.42769 0.23246 0.21613
 H1199 H 0.40977 0.16984 0.23489
 H1200 H 0.44370 0.19051 0.25561
 H1201 H 0.47499 0.20545 0.19049
 H1202 H 0.44076 0.18396 0.16882
 H1203 H 0.39258 0.22999 0.19908
 H1204 H 0.42681 0.25151 0.22073
 C1205 C -0.08208 0.69472 0.19275
 C1206 C -0.05917 0.67984 0.19851
 C1207 C -0.04197 0.69235 0.21103
 C1208 C -0.04919 0.71862 0.21667
 C1209 C -0.05553 0.72963 0.19163
 C1210 C -0.07271 0.71714 0.17905
 C1211 C -0.09074 0.70440 0.21751
 C1212 C -0.07354 0.71687 0.23001
 H1213 H -0.05662 0.66119 0.19294
 H1214 H -0.02468 0.68438 0.21619
 H1215 H -0.04699 0.74561 0.18417
 H1216 H -0.07831 0.72266 0.16094
 H1217 H -0.10892 0.70178 0.22449
 H1218 H -0.07702 0.72491 0.24772
 C1219 C -0.08457 0.18848 0.70123
 C1220 C -0.07274 0.17479 0.72283
 C1221 C -0.05572 0.18783 0.73494
 C1222 C -0.05170 0.21323 0.72438
 C1223 C -0.04579 0.20878 0.69732
 C1224 C -0.06298 0.19581 0.68518
 C1225 C -0.09406 0.21223 0.71222
 C1226 C -0.07688 0.22515 0.72428
 H1227 H -0.07579 0.15603 0.72742
 H1228 H -0.04518 0.18015 0.74981
 H1229 H -0.02933 0.21496 0.68857
 H1230 H -0.06115 0.19090 0.66611
 H1231 H -0.11274 0.21830 0.71067
 H1232 H -0.08087 0.24230 0.73302
 C1233 C 0.31180 0.41351 0.31040
 C1234 C 0.30615 0.43558 0.32648
 C1235 C 0.29381 0.45349 0.31461
 C1236 C 0.28822 0.44772 0.28776
 C1237 C 0.31309 0.44176 0.27651
 C1238 C 0.32546 0.42394 0.28831
 C1239 C 0.28715 0.40559 0.30012
 C1240 C 0.27482 0.42349 0.28831
 H1241 H 0.31161 0.43706 0.34545
 H1242 H 0.28870 0.47030 0.32347
 H1243 H 0.32069 0.45108 0.26091
 H1244 H 0.34344 0.41865 0.28252
 H1245 H 0.28012 0.38740 0.30186
 H1246 H 0.25721 0.42060 0.27993
 C1247 C 0.30623 -0.08496 0.80406
 C1248 C 0.30170 -0.06224 0.81960
 C1249 C 0.29010 -0.04410 0.80738
 C1250 C 0.28408 -0.05024 0.78072
 C1251 C 0.30857 -0.05755 0.76946
 C1252 C 0.32025 -0.07563 0.78161
 C1253 C 0.28116 -0.09197 0.79402
 C1254 C 0.26960 -0.07381 0.78190
 H1255 H 0.30743 -0.06046 0.83848
 H1256 H 0.28591 -0.02684 0.81582
 H1257 H 0.31647 -0.04886 0.75363
 H1258 H 0.33798 -0.08174 0.77583
 H1259 H 0.27331 -0.10979 0.79609
 H1260 H 0.25185 -0.07610 0.77362
 C1261 C 0.80663 0.41476 0.80051
 C1262 C 0.78129 0.40760 0.79130
 C1263 C 0.76944 0.42551 0.77907
 C1264 C 0.78394 0.44900 0.77694
 C1265 C 0.79070 0.45574 0.80327
 C1266 C 0.80257 0.43786 0.81560
 C1267 C 0.82004 0.42347 0.77743
 C1268 C 0.80810 0.44134 0.76517
 H1269 H 0.77347 0.38984 0.79395
 H1270 H 0.75150 0.42307 0.77128
 H1271 H 0.78677 0.47319 0.81142
 H1272 H 0.80878 0.44005 0.83428
 H1273 H 0.83736 0.41681 0.77105
 H1274 H 0.81542 0.44940 0.74875
 C1275 C 0.80321 -0.08577 0.31171
 C1276 C 0.81897 -0.06345 0.30675
 C1277 C 0.80729 -0.04569 0.29405
 C1278 C 0.78091 -0.05175 0.28750
 C1279 C 0.78230 -0.07595 0.27389
 C1280 C 0.79390 -0.09373 0.28653
 C1281 C 0.78065 -0.07552 0.32486
 C1282 C 0.76900 -0.05781 0.31209
 H1283 H 0.83755 -0.06163 0.31301
 H1284 H 0.81592 -0.02872 0.28943
 H1285 H 0.77467 -0.07890 0.25588
 H1286 H 0.79612 -0.11188 0.27934
 H1287 H 0.77466 -0.08053 0.34294
 H1288 H 0.75325 -0.04845 0.31932
 C1289 C 0.31375 0.58770 0.69810
 C1290 C 0.32696 0.57827 0.72110
 C1291 C 0.31472 0.56055 0.73298
 C1292 C 0.29051 0.55374 0.72084
 C1293 C 0.27637 0.57764 0.71891
 C1294 C 0.28852 0.59540 0.70704
 C1295 C 0.30945 0.56503 0.68254
 C1296 C 0.29727 0.54726 0.69444
 H1297 H 0.34463 0.58407 0.72732
 H1298 H 0.32201 0.55182 0.74917
 H1299 H 0.25838 0.58040 0.72640
 H1300 H 0.28096 0.61335 0.70437
 H1301 H 0.31570 0.56305 0.66389
 H1302 H 0.29310 0.53005 0.68595
 C1303 C 0.31416 1.08522 0.19481
 C1304 C 0.32800 1.07321 0.21620
 C1305 C 0.31518 1.05564 0.22762
 C1306 C 0.28987 1.05136 0.21660
 C1307 C 0.27736 1.07618 0.21714
 C1308 C 0.29005 1.09389 0.20579
 C1309 C 0.30743 1.06398 0.17802
 C1310 C 0.29468 1.04627 0.18945
 H1311 H 0.34668 1.07671 0.22113
 H1312 H 0.32296 1.04491 0.24229
 H1313 H 0.26004 1.07956 0.22587
 H1314 H 0.28360 1.11242 0.20481
 H1315 H 0.31261 1.06275 0.15898
 H1316 H 0.28895 1.02995 0.18015
 C1317 C 0.81758 0.58423 0.19913
 C1318 C 0.83023 0.57537 0.22264
 C1319 C 0.81786 0.55765 0.23445
 C1320 C 0.79407 0.55035 0.22172
 C1321 C 0.77973 0.57405 0.21901
 C1322 C 0.79201 0.59177 0.20723
 C1323 C 0.81398 0.56126 0.18383
 C1324 C 0.80165 0.54354 0.19565
 H1325 H 0.84751 0.58175 0.22939
 H1326 H 0.82467 0.54940 0.25109
 H1327 H 0.76151 0.57674 0.22596
 H1328 H 0.78435 0.60960 0.20411
 H1329 H 0.82080 0.55904 0.16542
 H1330 H 0.79792 0.52615 0.18732
 C1331 C 0.81187 1.08276 0.70028
 C1332 C 0.82446 1.07243 0.72322
 C1333 C 0.81162 1.05478 0.73445
 C1334 C 0.78742 1.04884 0.72180
 C1335 C 0.77390 1.07311 0.72021
 C1336 C 0.78668 1.09085 0.70898
 C1337 C 0.80725 1.06058 0.68408
 C1338 C 0.79444 1.04281 0.69535
 H1339 H 0.84227 1.07745 0.72976
 H1340 H 0.81855 1.04540 0.75042
 H1341 H 0.75581 1.07610 0.72735
 H1342 H 0.77957 1.10902 0.70655
 H1343 H 0.81373 1.05890 0.66549
 H1344 H 0.78994 1.02593 0.68638
 C1345 C 0.69689 0.58507 0.31293
 C1346 C 0.71881 0.57545 0.32760
 C1347 C 0.73117 0.55743 0.31604
 C1348 C 0.72051 0.55057 0.29099
 C1349 C 0.69388 0.54453 0.29620
 C1350 C 0.68152 0.56256 0.30771
 C1351 C 0.70734 0.59241 0.28811
 C1352 C 0.71967 0.57439 0.27664
 H1353 H 0.72401 0.58147 0.34565
 H1354 H 0.74677 0.54860 0.32430
 H1355 H 0.68556 0.52740 0.29153
 H1356 H 0.66264 0.56087 0.31290
 H1357 H 0.70535 0.61035 0.28034
 H1358 H 0.72821 0.57692 0.25903
 C1359 C 0.69002 1.08518 0.81212
 C1360 C 0.71130 1.07468 0.82722
 C1361 C 0.72345 1.05654 0.81570
 C1362 C 0.71328 1.05030 0.79028
 C1363 C 0.68637 1.04489 0.79475
 C1364 C 0.67418 1.06309 0.80622
 C1365 C 0.70131 1.09252 0.78764
 C1366 C 0.71342 1.07430 0.77625
 H1367 H 0.71596 1.07980 0.84570
 H1368 H 0.73836 1.04695 0.82439
 H1369 H 0.67774 1.02803 0.78969
 H1370 H 0.65516 1.06174 0.81099
 H1371 H 0.69999 1.11058 0.78002
 H1372 H 0.72240 1.07678 0.75886
 C1373 C 0.19325 0.58657 0.81466
 C1374 C 0.20381 0.59491 0.79016
 C1375 C 0.21638 0.57742 0.77812
 C1376 C 0.21737 0.55312 0.79159
 C1377 C 0.22780 0.55915 0.81695
 C1378 C 0.21520 0.57656 0.82912
 C1379 C 0.17816 0.56404 0.80852
 C1380 C 0.19079 0.54660 0.79642
 H1381 H 0.20173 0.61309 0.78303
 H1382 H 0.22502 0.58065 0.76068
 H1383 H 0.24329 0.55000 0.82508
 H1384 H 0.22012 0.58154 0.84756
 H1385 H 0.15929 0.56187 0.81359
 H1386 H 0.18270 0.52954 0.79112
 C1387 C 0.18864 1.08801 0.30317
 C1388 C 0.21400 1.09537 0.29440
 C1389 C 0.22656 1.07719 0.28342
 C1390 C 0.21270 1.05326 0.28206
 C1391 C 0.20549 1.04765 0.30851
 C1392 C 0.19288 1.06580 0.31956
 C1393 C 0.17596 1.07775 0.28024
 C1394 C 0.18864 1.05967 0.26924
 H1395 H 0.22133 1.11341 0.29648
 H1396 H 0.24464 1.07969 0.27612
 H1397 H 0.20964 1.03071 0.31763
 H1398 H 0.18624 1.06435 0.33812
 H1399 H 0.15828 1.08308 0.27348
 H1400 H 0.18167 1.05030 0.25332
 C1401 C 0.68745 0.41204 0.68858
 C1402 C 0.67370 0.42216 0.71083
 C1403 C 0.68527 0.44089 0.72198
 C1404 C 0.70943 0.44783 0.70989
 C1405 C 0.72426 0.42428 0.70948
 C1406 C 0.71278 0.40558 0.69839
 C1407 C 0.69130 0.43403 0.67195
 C1408 C 0.70280 0.45274 0.68309
 H1409 H 0.65637 0.41574 0.71729
 H1410 H 0.67770 0.45006 0.73773
 H1411 H 0.74217 0.42239 0.71755
 H1412 H 0.72084 0.38771 0.69696
 H1413 H 0.68521 0.43487 0.65312
 H1414 H 0.70655 0.46961 0.67378
 C1415 C 0.68921 -0.08822 0.19197
 C1416 C 0.69418 -0.06623 0.17563
 C1417 C 0.70572 -0.04784 0.18733
 C1418 C 0.71124 -0.05305 0.21432
 C1419 C 0.68648 -0.05952 0.22542
 C1420 C 0.67490 -0.07788 0.21375
 C1421 C 0.71403 -0.09530 0.20264
 C1422 C 0.72554 -0.07693 0.21428
 H1423 H 0.68882 -0.06515 0.15660
 H1424 H 0.71025 -0.03102 0.17828
 H1425 H 0.67846 -0.05023 0.24088
 H1426 H 0.65713 -0.08378 0.21944
 H1427 H 0.72178 -0.11331 0.20126
 H1428 H 0.74318 -0.07922 0.22279
 C1429 C 0.19194 0.41206 0.19627
 C1430 C 0.21712 0.40492 0.20602
 C1431 C 0.22884 0.42313 0.21775
 C1432 C 0.21435 0.44687 0.21878
 C1433 C 0.20797 0.45267 0.19210
 C1434 C 0.19624 0.43447 0.18033
 C1435 C 0.17823 0.42175 0.21873
 C1436 C 0.19000 0.43993 0.23048
 H1437 H 0.22492 0.38700 0.20405
 H1438 H 0.24669 0.42076 0.22582
 H1439 H 0.21209 0.46973 0.18332
 H1440 H 0.19031 0.43595 0.16149
 H1441 H 0.16076 0.41547 0.22493
 H1442 H 0.18242 0.44871 0.24645
 C1443 C 0.18722 -0.08646 0.69212
 C1444 C 0.17362 -0.07602 0.71440
 C1445 C 0.18555 -0.05752 0.72553
 C1446 C 0.20982 -0.05101 0.71343
 C1447 C 0.22425 -0.07479 0.71303
 C1448 C 0.21247 -0.09331 0.70195
 C1449 C 0.19139 -0.06446 0.67550
 C1450 C 0.20324 -0.04597 0.68666
 H1451 H 0.15598 -0.08172 0.72069
 H1452 H 0.17802 -0.04805 0.74111
 H1453 H 0.24214 -0.07696 0.72109
 H1454 H 0.22027 -0.11130 0.70055
 H1455 H 0.18522 -0.06339 0.65671
 H1456 H 0.20721 -0.02913 0.67738
 C1457 C 0.30748 0.30783 0.41720
 C1458 C 0.28359 0.29746 0.40742
 C1459 C 0.27015 0.28601 0.42465
 C1460 C 0.28180 0.28590 0.45013
 C1461 C 0.30713 0.27476 0.44636
 C1462 C 0.32061 0.28621 0.42925
 C1463 C 0.30013 0.32413 0.43867
 C1464 C 0.28668 0.31263 0.45591
 H1465 H 0.27782 0.29893 0.38853
 H1466 H 0.25286 0.27768 0.42049
 H1467 H 0.31428 0.25964 0.45680
 H1468 H 0.33913 0.28070 0.42578
 H1469 H 0.30528 0.34295 0.44027
 H1470 H 0.28031 0.32166 0.47228
 C1471 C 0.29523 0.81436 -0.08607
 C1472 C 0.31028 0.81147 -0.06262
 C1473 C 0.29846 0.79974 -0.04440
 C1474 C 0.27261 0.79195 -0.05122
 C1475 C 0.25994 0.81540 -0.05956
 C1476 C 0.27175 0.82720 -0.07780
 C1477 C 0.28728 0.78867 -0.09284
 C1478 C 0.27548 0.77696 -0.07462
 H1479 H 0.32855 0.81832 -0.06046
 H1480 H 0.30664 0.79656 -0.02664
 H1481 H 0.24326 0.82233 -0.05171
 H1482 H 0.26490 0.84410 -0.08508
 H1483 H 0.29048 0.78050 -0.11054
 H1484 H 0.26864 0.75874 -0.07676
 C1485 C 0.79671 0.31542 -0.08852
 C1486 C 0.81152 0.31185 -0.06499
 C1487 C 0.79937 0.29990 -0.04713
 C1488 C 0.77348 0.29264 -0.05436
 C1489 C 0.76125 0.31646 -0.06235
 C1490 C 0.77338 0.32844 -0.08019
 C1491 C 0.78847 0.28997 -0.09588
 C1492 C 0.77635 0.27807 -0.07802
 H1493 H 0.82987 0.31840 -0.06252
 H1494 H 0.80735 0.29622 -0.02937
 H1495 H 0.74471 0.32361 -0.05440
 H1496 H 0.76701 0.34573 -0.08695
 H1497 H 0.79176 0.28211 -0.11371
 H1498 H 0.76927 0.25998 -0.08057
 C1499 C 0.80679 0.80646 0.41433
 C1500 C 0.78122 0.79844 0.40678
 C1501 C 0.76872 0.78733 0.42489
 C1502 C 0.78285 0.78514 0.44897
 C1503 C 0.80663 0.77215 0.44202
 C1504 C 0.81921 0.78329 0.42391
 C1505 C 0.80308 0.82220 0.43712
 C1506 C 0.79055 0.81104 0.45524
 H1507 H 0.77374 0.80107 0.38863
 H1508 H 0.75051 0.78045 0.42223
 H1509 H 0.81321 0.75576 0.45071
 H1510 H 0.83636 0.77615 0.41755
 H1511 H 0.80997 0.84044 0.43892
 H1512 H 0.78673 0.81976 0.47255
 C1513 C 0.70129 0.30570 0.58397
 C1514 C 0.72456 0.31876 0.57592
 C1515 C 0.73736 0.30656 0.55867
 C1516 C 0.72585 0.28247 0.55088
 C1517 C 0.72272 0.26834 0.57476
 C1518 C 0.70990 0.28049 0.59208
 C1519 C 0.68713 0.30145 0.56018
 C1520 C 0.69998 0.28929 0.54286
 H1521 H 0.73059 0.33613 0.58255
 H1522 H 0.75399 0.31370 0.55108
 H1523 H 0.73017 0.25040 0.57786
 H1524 H 0.70637 0.27297 0.60999
 H1525 H 0.66868 0.30768 0.55717
 H1526 H 0.69251 0.28511 0.52502
 C1527 C 0.70121 0.80601 1.08573
 C1528 C 0.68651 0.80315 1.06207
 C1529 C 0.69840 0.79073 1.04431
 C1530 C 0.72395 0.78229 1.05174
 C1531 C 0.73695 0.80550 1.05989
 C1532 C 0.72508 0.81798 1.07769
 C1533 C 0.70854 0.78021 1.09312
 C1534 C 0.72040 0.76780 1.07534
 H1535 H 0.66842 0.81051 1.05947
 H1536 H 0.69045 0.78747 1.02647
 H1537 H 0.75395 0.81172 1.05230
 H1538 H 0.73221 0.83470 1.08491
 H1539 H 0.70494 0.77250 1.11094
 H1540 H 0.72697 0.74945 1.07794
 C1541 C 0.20061 0.30937 1.08663
 C1542 C 0.22403 0.32184 1.07804
 C1543 C 0.23566 0.30971 1.05984
 C1544 C 0.22289 0.28633 1.05183
 C1545 C 0.22020 0.27160 1.07540
 C1546 C 0.20857 0.28364 1.09359
 C1547 C 0.18536 0.30643 1.06333
 C1548 C 0.19701 0.29436 1.04513
 H1549 H 0.23090 0.33877 1.08500
 H1550 H 0.25224 0.31641 1.05174
 H1551 H 0.22713 0.25334 1.07768
 H1552 H 0.20553 0.27571 1.11142
 H1553 H 0.16708 0.31349 1.06125
 H1554 H 0.18868 0.29110 1.02747
 C1555 C 0.19821 0.81023 0.58545
 C1556 C 0.18311 0.80631 0.56218
 C1557 C 0.19528 0.79444 0.54418
 C1558 C 0.22143 0.78753 0.55106
 C1559 C 0.23322 0.81154 0.55875
 C1560 C 0.22110 0.82346 0.57669
 C1561 C 0.20716 0.78491 0.59283
 C1562 C 0.21927 0.77304 0.57483
 H1563 H 0.16456 0.81258 0.56000
 H1564 H 0.18712 0.79053 0.52658
 H1565 H 0.24950 0.81885 0.55059
 H1566 H 0.22735 0.84075 0.58334
 H1567 H 0.20437 0.77712 0.61076
 H1568 H 0.22685 0.75507 0.57736
 C1569 C 0.30961 0.68951 0.58701
 C1570 C 0.28738 0.67634 0.57644
 C1571 C 0.27631 0.68858 0.55790
 C1572 C 0.28844 0.71278 0.55154
 C1573 C 0.28907 0.72679 0.57571
 C1574 C 0.30011 0.71463 0.59425
 C1575 C 0.32607 0.69391 0.56490
 C1576 C 0.31499 0.70610 0.54635
 H1577 H 0.28099 0.65882 0.58226
 H1578 H 0.26065 0.68138 0.54839
 H1579 H 0.28123 0.74467 0.57810
 H1580 H 0.30172 0.72207 0.61249
 H1581 H 0.34473 0.68769 0.56385
 H1582 H 0.32418 0.71033 0.52941
 C1583 C 0.31044 0.18966 1.08880
 C1584 C 0.30095 0.21498 1.09531
 C1585 C 0.28988 0.22661 1.07639
 C1586 C 0.28919 0.21190 1.05263
 C1587 C 0.31576 0.20506 1.04763
 C1588 C 0.32689 0.19345 1.06658
 C1589 C 0.28812 0.17628 1.07856
 C1590 C 0.27707 0.18795 1.05971
 H1591 H 0.30262 0.22297 1.11331
 H1592 H 0.28208 0.24457 1.07824
 H1593 H 0.32495 0.20885 1.03059
 H1594 H 0.34558 0.18731 1.06576
 H1595 H 0.28135 0.15913 1.08498
 H1596 H 0.26130 0.18055 1.05056
 C1597 C 0.81190 0.68359 1.08674
 C1598 C 0.80295 0.70900 1.09361
 C1599 C 0.79139 0.72077 1.07515
 C1600 C 0.78970 0.70611 1.05144
 C1601 C 0.81597 0.69895 1.04545
 C1602 C 0.82759 0.68716 1.06393
 C1603 C 0.78912 0.67041 1.07737
 C1604 C 0.77752 0.68228 1.05891
 H1605 H 0.80530 0.71692 1.11157
 H1606 H 0.78383 0.73880 1.07733
 H1607 H 0.82458 0.70258 1.02806
 H1608 H 0.84613 0.68070 1.06239
 H1609 H 0.78270 0.65317 1.08396
 H1610 H 0.76142 0.67506 1.05020
 C1611 C 0.81439 0.18555 0.59032
 C1612 C 0.80382 0.21033 0.59724
 C1613 C 0.79332 0.22231 0.57825
 C1614 C 0.79426 0.20850 0.55397
 C1615 C 0.82124 0.20265 0.55007
 C1616 C 0.83179 0.19063 0.56909
 C1617 C 0.79313 0.17184 0.57845
 C1618 C 0.78261 0.18390 0.55953
 H1619 H 0.80443 0.21770 0.61557
 H1620 H 0.78491 0.23997 0.58035
 H1621 H 0.83112 0.20732 0.53365
 H1622 H 0.85066 0.18501 0.56894
 H1623 H 0.78724 0.15389 0.58344
 H1624 H 0.76786 0.17615 0.54903
 C1625 C 0.68570 0.69664 0.41303
 C1626 C 0.68849 0.68184 0.43658
 C1627 C 0.69980 0.69395 0.45496
 C1628 C 0.70730 0.71978 0.44815
 C1629 C 0.72273 0.71698 0.42504
 C1630 C 0.71143 0.70491 0.40668
 C1631 C 0.67233 0.71990 0.42098
 C1632 C 0.68371 0.73199 0.43935
 H1633 H 0.68188 0.66353 0.43868
 H1634 H 0.70285 0.68598 0.47281
 H1635 H 0.74090 0.72417 0.42318
 H1636 H 0.71991 0.70176 0.38912
 H1637 H 0.65533 0.72637 0.41346
 H1638 H 0.67635 0.74851 0.44706
 C1639 C 0.68158 0.19639 -0.08876
 C1640 C 0.68632 0.18141 -0.06560
 C1641 C 0.69787 0.19387 -0.04759
 C1642 C 0.70360 0.22018 -0.05434
 C1643 C 0.71801 0.21853 -0.07821
 C1644 C 0.70649 0.20610 -0.09620
 C1645 C 0.66738 0.21873 -0.07974
 C1646 C 0.67897 0.23116 -0.06179
 H1647 H 0.68080 0.16275 -0.06347
 H1648 H 0.70225 0.18584 -0.03004
 H1649 H 0.73570 0.22659 -0.08078
 H1650 H 0.71430 0.20354 -0.11417
 H1651 H 0.64952 0.22413 -0.08598
 H1652 H 0.67094 0.24700 -0.05331
 C1653 C 0.18179 0.69447 -0.08320
 C1654 C 0.20593 0.70547 -0.09135
 C1655 C 0.21750 0.71806 -0.07353
 C1656 C 0.20394 0.71858 -0.04913
 C1657 C 0.17858 0.72857 -0.05543
 C1658 C 0.16691 0.71594 -0.07321
 C1659 C 0.18805 0.67928 -0.06055
 C1660 C 0.19967 0.69191 -0.04272
 H1661 H 0.21317 0.70362 -0.10964
 H1662 H 0.23470 0.72698 -0.07659
 H1663 H 0.17014 0.74380 -0.04626
 H1664 H 0.14856 0.72051 -0.07861
 H1665 H 0.18346 0.66034 -0.05861
 H1666 H 0.20504 0.68375 -0.02551
 C1667 C 0.19052 0.19074 0.41168
 C1668 C 0.20003 0.21571 0.40433
 C1669 C 0.21074 0.22800 0.42291
 C1670 C 0.21104 0.21425 0.44724
 C1671 C 0.18443 0.20782 0.45207
 C1672 C 0.17368 0.19550 0.43348
 C1673 C 0.21262 0.17754 0.42278
 C1674 C 0.22335 0.18989 0.44135
 H1675 H 0.19859 0.22300 0.38599
 H1676 H 0.21844 0.24583 0.42047
 H1677 H 0.17495 0.21233 0.46880
 H1678 H 0.15503 0.18944 0.43429
 H1679 H 0.21913 0.15987 0.41734
 H1680 H 0.23887 0.18266 0.45120
 C1681 C 0.31014 0.41661 0.69502
 C1682 C 0.28500 0.40981 0.70474
 C1683 C 0.27369 0.42798 0.71703
 C1684 C 0.28851 0.45133 0.71858
 C1685 C 0.31290 0.44353 0.72992
 C1686 C 0.32428 0.42540 0.71762
 C1687 C 0.30593 0.43950 0.67968
 C1688 C 0.29461 0.45768 0.69202
 H1689 H 0.27692 0.39214 0.70234
 H1690 H 0.25590 0.42584 0.72514
 H1691 H 0.32085 0.45177 0.74601
 H1692 H 0.34179 0.41866 0.72350
 H1693 H 0.31160 0.44131 0.66083
 H1694 H 0.29059 0.47506 0.68372
 C1695 C 0.31171 0.91444 0.19583
 C1696 C 0.32449 0.92287 0.21939
 C1697 C 0.31252 0.94110 0.23108
 C1698 C 0.28899 0.94923 0.21818
 C1699 C 0.29687 0.95566 0.19214
 C1700 C 0.30876 0.93747 0.18045
 C1701 C 0.28594 0.90785 0.20389
 C1702 C 0.27406 0.92605 0.21552
 H1703 H 0.34137 0.91560 0.22642
 H1704 H 0.31934 0.94905 0.24783
 H1705 H 0.29366 0.97315 0.18373
 H1706 H 0.31571 0.93936 0.16205
 H1707 H 0.27787 0.89025 0.20093
 H1708 H 0.25580 0.92402 0.22253
 C1709 C 0.81268 0.41390 0.19391
 C1710 C 0.82672 0.42201 0.21686
 C1711 C 0.81541 0.43994 0.22953
 C1712 C 0.79118 0.44823 0.21819
 C1713 C 0.79755 0.45516 0.19184
 C1714 C 0.80879 0.43719 0.17913
 C1715 C 0.78741 0.40710 0.20328
 C1716 C 0.77617 0.42506 0.21594
 H1717 H 0.84408 0.41488 0.22274
 H1718 H 0.82325 0.44767 0.24593
 H1719 H 0.79377 0.47278 0.18395
 H1720 H 0.81463 0.43942 0.16038
 H1721 H 0.77920 0.38955 0.20040
 H1722 H 0.75831 0.42287 0.22389
 C1723 C 0.80761 0.91208 0.69725
 C1724 C 0.78193 0.90518 0.70541
 C1725 C 0.76993 0.92323 0.71729
 C1726 C 0.78467 0.94655 0.72004
 C1727 C 0.80835 0.93851 0.73265
 C1728 C 0.82036 0.92052 0.72082
 C1729 C 0.80426 0.93518 0.68203
 C1730 C 0.79228 0.95322 0.69396
 H1731 H 0.77400 0.88754 0.70231
 H1732 H 0.75171 0.92102 0.72434
 H1733 H 0.81516 0.94615 0.74956
 H1734 H 0.83708 0.91319 0.72812
 H1735 H 0.81092 0.93719 0.66354
 H1736 H 0.78869 0.97069 0.68566
 C1737 C 0.68795 0.58747 0.68561
 C1738 C 0.67180 0.56572 0.69162
 C1739 C 0.68390 0.54715 0.70268
 C1740 C 0.71104 0.55199 0.70670
 C1741 C 0.72071 0.55826 0.68117
 C1742 C 0.70863 0.57675 0.67006
 C1743 C 0.69993 0.59440 0.70991
 C1744 C 0.71197 0.57586 0.72093
 H1745 H 0.65262 0.56491 0.68729
 H1746 H 0.67504 0.53046 0.70784
 H1747 H 0.73528 0.54854 0.67216
 H1748 H 0.71300 0.58220 0.65164
 H1749 H 0.69908 0.61241 0.71769
 H1750 H 0.72139 0.57803 0.73819
 C1751 C 0.69302 0.08484 0.18586
 C1752 C 0.67725 0.06242 0.19005
 C1753 C 0.68883 0.04430 0.20227
 C1754 C 0.71515 0.05016 0.20918
 C1755 C 0.72725 0.05699 0.18485
 C1756 C 0.71567 0.07514 0.17257
 C1757 C 0.70215 0.09209 0.21131
 C1758 C 0.71369 0.07397 0.22349
 H1759 H 0.65869 0.06086 0.18367
 H1760 H 0.68014 0.02723 0.20636
 H1761 H 0.74331 0.04815 0.17766
 H1762 H 0.72202 0.08137 0.15501
 H1763 H 0.69995 0.11005 0.21894
 H1764 H 0.72138 0.07645 0.24157
 C1765 C 0.19289 0.58525 0.19442
 C1766 C 0.17626 0.56414 0.20135
 C1767 C 0.18799 0.54573 0.21310
 C1768 C 0.21525 0.55011 0.21681
 C1769 C 0.22491 0.55517 0.19100
 C1770 C 0.21322 0.57345 0.17923
 C1771 C 0.20512 0.59285 0.21840
 C1772 C 0.21679 0.57447 0.23011
 H1773 H 0.15704 0.56360 0.19713
 H1774 H 0.17878 0.52946 0.21895
 H1775 H 0.23905 0.54465 0.18220
 H1776 H 0.21743 0.57783 0.16048
 H1777 H 0.20468 0.61115 0.22547
 H1778 H 0.22636 0.57707 0.24724
 C1779 C 0.18899 0.08707 0.68678
 C1780 C 0.20026 0.09453 0.71128
 C1781 C 0.21239 0.07636 0.72281
 C1782 C 0.21226 0.05232 0.70885
 C1783 C 0.18534 0.04689 0.70425
 C1784 C 0.17315 0.06507 0.69267
 C1785 C 0.21026 0.07664 0.67187
 C1786 C 0.22243 0.05850 0.68348
 H1787 H 0.19889 0.11261 0.71881
 H1788 H 0.22137 0.07891 0.74026
 H1789 H 0.17669 0.03008 0.70939
 H1790 H 0.15410 0.06383 0.68790
 H1791 H 0.21510 0.08212 0.65358
 H1792 H 0.23750 0.04907 0.67501
 C1793 C 0.30934 0.58564 0.30910
 C1794 C 0.32562 0.56380 0.30310
 C1795 C 0.31369 0.54542 0.29173
 C1796 C 0.28659 0.55054 0.28742
 C1797 C 0.27662 0.55669 0.31288
 C1798 C 0.28851 0.57494 0.32427
 C1799 C 0.29767 0.59288 0.28469
 C1800 C 0.28578 0.57453 0.27336
 H1801 H 0.34476 0.56279 0.30765
 H1802 H 0.32266 0.52870 0.28654
 H1803 H 0.26206 0.54694 0.32172
 H1804 H 0.28400 0.58006 0.34277
 H1805 H 0.29859 0.61095 0.27708
 H1806 H 0.27652 0.57690 0.25601
 C1807 C 0.30984 0.08673 0.79963
 C1808 C 0.28417 0.09406 0.79151
 C1809 C 0.27179 0.07611 0.78011
 C1810 C 0.28615 0.05238 0.77776
 C1811 C 0.30978 0.05951 0.76480
 C1812 C 0.32224 0.07744 0.77622
 C1813 C 0.30644 0.06403 0.81537
 C1814 C 0.29403 0.04606 0.80392
 H1815 H 0.27648 0.11192 0.79440
 H1816 H 0.25346 0.07861 0.77329
 H1817 H 0.31646 0.05095 0.74832
 H1818 H 0.33944 0.08365 0.76926
 H1819 H 0.31343 0.06219 0.83381
 H1820 H 0.29039 0.02883 0.81259
 C1821 C 0.80941 0.58504 0.79700
 C1822 C 0.82143 0.57649 0.77312
 C1823 C 0.80888 0.55876 0.76146
 C1824 C 0.78554 0.55112 0.77466
 C1825 C 0.79394 0.54417 0.80049
 C1826 C 0.80644 0.56191 0.81218
 C1827 C 0.78355 0.59241 0.78955
 C1828 C 0.77107 0.57467 0.77790
 H1829 H 0.83835 0.58317 0.76591
 H1830 H 0.81523 0.55078 0.74455
 H1831 H 0.79058 0.52669 0.80876
 H1832 H 0.81378 0.55962 0.83043
 H1833 H 0.77580 0.61013 0.79304
 H1834 H 0.75261 0.57722 0.77151
 C1835 C 0.80687 0.08468 0.30589
 C1836 C 0.82179 0.06143 0.30229
 C1837 C 0.80946 0.04348 0.29069
 C1838 C 0.78333 0.05039 0.28370
 C1839 C 0.77165 0.05858 0.30782
 C1840 C 0.78389 0.07647 0.31946
 C1841 C 0.79791 0.09160 0.28023
 C1842 C 0.78564 0.07365 0.26862
 H1843 H 0.84035 0.05924 0.30853
 H1844 H 0.81751 0.02592 0.28702
 H1845 H 0.75517 0.05096 0.31528
 H1846 H 0.77745 0.08371 0.33659
 H1847 H 0.80079 0.10918 0.27203
 H1848 H 0.77803 0.07590 0.25047
 C1849 C 0.69571 0.41189 0.30766
 C1850 C 0.72099 0.40508 0.29814
 C1851 C 0.73271 0.42359 0.28705
 C1852 C 0.71815 0.44730 0.28640
 C1853 C 0.69395 0.44058 0.27411
 C1854 C 0.68214 0.42206 0.28523
 C1855 C 0.69976 0.43391 0.32423
 C1856 C 0.71151 0.45243 0.31310
 H1857 H 0.72884 0.38713 0.29976
 H1858 H 0.75063 0.42147 0.27917
 H1859 H 0.68651 0.44974 0.25823
 H1860 H 0.66474 0.41584 0.27864
 H1861 H 0.69364 0.43491 0.34300
 H1862 H 0.71546 0.46929 0.32237
 C1863 C 0.68733 0.91366 0.81094
 C1864 C 0.67369 0.92337 0.78832
 C1865 C 0.68577 0.94122 0.77639
 C1866 C 0.71028 0.94776 0.78812
 C1867 C 0.70412 0.95395 0.81472
 C1868 C 0.69212 0.93611 0.82666
 C1869 C 0.71230 0.90592 0.80131
 C1870 C 0.72430 0.92375 0.78942
 H1871 H 0.65611 0.91728 0.78211
 H1872 H 0.67839 0.94997 0.76026
 H1873 H 0.70855 0.97104 0.82333
 H1874 H 0.68629 0.93790 0.84547
 H1875 H 0.71974 0.88785 0.80342
 H1876 H 0.74204 0.92093 0.78135
 C1877 C 0.19225 0.41629 0.80846
 C1878 C 0.19727 0.43805 0.82510
 C1879 C 0.20939 0.45628 0.81385
 C1880 C 0.21540 0.45111 0.78699
 C1881 C 0.22925 0.42697 0.78727
 C1882 C 0.21714 0.40876 0.79847
 C1883 C 0.17862 0.42705 0.78633
 C1884 C 0.19079 0.44522 0.77512
 H1885 H 0.19154 0.43911 0.84398
 H1886 H 0.21404 0.47296 0.82314
 H1887 H 0.24698 0.42438 0.77912
 H1888 H 0.22448 0.39058 0.79992
 H1889 H 0.16086 0.42160 0.78005
 H1890 H 0.18328 0.45477 0.75952
 C1891 C 0.18958 0.91683 0.30641
 C1892 C 0.19319 0.93981 0.32167
 C1893 C 0.20527 0.95761 0.30973
 C1894 C 0.21268 0.95083 0.28361
 C1895 C 0.22719 0.92722 0.28619
 C1896 C 0.21511 0.90943 0.29806
 C1897 C 0.17669 0.92557 0.28298
 C1898 C 0.18885 0.94337 0.27106
 H1899 H 0.18654 0.94197 0.34015
 H1900 H 0.20895 0.97502 0.31802
 H1901 H 0.24532 0.92461 0.27897
 H1902 H 0.22288 0.89160 0.30101
 H1903 H 0.15958 0.91884 0.27616
 H1904 H 0.18195 0.95145 0.25438
 C1905 C 0.41201 0.30687 0.68328
 C1906 C 0.43484 0.32216 0.68739
 C1907 C 0.45326 0.30997 0.69868
 C1908 C 0.44718 0.28359 0.70481
 C1909 C 0.42380 0.28496 0.71987
 C1910 C 0.40541 0.29710 0.70861
 C1911 C 0.42105 0.28463 0.66895
 C1912 C 0.43939 0.27247 0.68027
 H1913 H 0.43646 0.34085 0.68166
 H1914 H 0.47063 0.31824 0.70261
 H1915 H 0.42181 0.27687 0.73779
 H1916 H 0.38770 0.29942 0.71687
 H1917 H 0.41458 0.27914 0.65114
 H1918 H 0.44798 0.25679 0.67206
 C1919 C 0.41431 0.80469 0.18415
 C1920 C 0.43719 0.81993 0.18815
 C1921 C 0.45565 0.80768 0.19929
 C1922 C 0.44956 0.78131 0.20541
 C1923 C 0.42627 0.78269 0.22061
 C1924 C 0.40783 0.79489 0.20950
 C1925 C 0.42321 0.78244 0.16972
 C1926 C 0.44160 0.77023 0.18091
 H1927 H 0.43880 0.83863 0.18246
 H1928 H 0.47306 0.81592 0.20314
 H1929 H 0.42439 0.77460 0.23855
 H1930 H 0.39018 0.79723 0.21787
 H1931 H 0.41652 0.77688 0.15203
 H1932 H 0.45002 0.75447 0.17268
 C1933 C 0.91383 0.30427 0.18027
 C1934 C 0.93670 0.31955 0.18410
 C1935 C 0.95500 0.30756 0.19569
 C1936 C 0.94885 0.28135 0.20238
 C1937 C 0.92539 0.28308 0.21730
 C1938 C 0.90711 0.29503 0.20575
 C1939 C 0.92280 0.28166 0.16642
 C1940 C 0.94114 0.26966 0.17809
 H1941 H 0.93841 0.33809 0.17792
 H1942 H 0.97240 0.31587 0.19943
 H1943 H 0.92328 0.27533 0.23535
 H1944 H 0.88936 0.29750 0.21387
 H1945 H 0.91603 0.27568 0.14889
 H1946 H 0.94958 0.25361 0.17046
 C1947 C 0.91628 0.80884 0.68727
 C1948 C 0.93698 0.82495 0.69656
 C1949 C 0.95494 0.81248 0.70831
 C1950 C 0.95052 0.78507 0.70967
 C1951 C 0.92550 0.78252 0.72151
 C1952 C 0.90759 0.79492 0.70979
 C1953 C 0.92901 0.78983 0.67117
 C1954 C 0.94682 0.77736 0.68294
 H1955 H 0.93764 0.84435 0.69379
 H1956 H 0.97095 0.82124 0.71561
 H1957 H 0.92215 0.77178 0.73771
 H1958 H 0.88891 0.79484 0.71592
 H1959 H 0.92563 0.78725 0.65186
 H1960 H 0.95802 0.76410 0.67364
 C1961 C 0.59297 0.30309 0.31429
 C1962 C 0.57032 0.31916 0.31132
 C1963 C 0.55151 0.30801 0.29980
 C1964 C 0.55700 0.28179 0.29232
 C1965 C 0.58015 0.28323 0.27691
 C1966 C 0.59895 0.29434 0.28839
 C1967 C 0.58381 0.28043 0.32769
 C1968 C 0.56506 0.26933 0.31616
 H1969 H 0.56914 0.33760 0.31793
 H1970 H 0.53424 0.31695 0.29655
 H1971 H 0.58165 0.27603 0.25856
 H1972 H 0.61653 0.29661 0.27990
 H1973 H 0.59067 0.27377 0.34496
 H1974 H 0.55650 0.25339 0.32369
 C1975 C 0.58309 0.80751 0.82120
 C1976 C 0.56049 0.82334 0.81703
 C1977 C 0.54225 0.81182 0.80502
 C1978 C 0.54826 0.78550 0.79830
 C1979 C 0.57199 0.78680 0.78383
 C1980 C 0.59019 0.79828 0.79580
 C1981 C 0.57356 0.78506 0.83475
 C1982 C 0.55536 0.77353 0.82267
 H1983 H 0.55888 0.84189 0.82326
 H1984 H 0.52502 0.82052 0.80097
 H1985 H 0.57433 0.77916 0.76575
 H1986 H 0.60810 0.80045 0.78800
 H1987 H 0.57968 0.77900 0.85252
 H1988 H 0.54648 0.75776 0.83017
 C1989 C 0.08554 0.31188 0.81341
 C1990 C 0.07220 0.32667 0.79358
 C1991 C 0.05370 0.31459 0.78271
 C1992 C 0.04993 0.28892 0.79268
 C1993 C 0.07466 0.27637 0.78990
 C1994 C 0.09327 0.28837 0.80072
 C1995 C 0.06543 0.30445 0.83121
 C1996 C 0.04676 0.29242 0.82034
 H1997 H 0.07568 0.34541 0.78925
 H1998 H 0.04211 0.32308 0.76912
 H1999 H 0.07731 0.25951 0.78011
 H2000 H 0.11183 0.28182 0.80023
 H2001 H 0.06570 0.30856 0.85057
 H2002 H 0.03108 0.28624 0.83043
 C2003 C 0.08570 0.81013 0.31638
 C2004 C 0.06337 0.82602 0.31105
 C2005 C 0.04530 0.81425 0.29902
 C2006 C 0.05116 0.78764 0.29345
 C2007 C 0.07526 0.78817 0.27954
 C2008 C 0.09330 0.79990 0.29151
 C2009 C 0.07560 0.78831 0.33051
 C2010 C 0.05757 0.77654 0.31844
 H2011 H 0.06181 0.84480 0.31655
 H2012 H 0.02827 0.82297 0.29421
 H2013 H 0.07794 0.77988 0.26180
 H2014 H 0.11141 0.80163 0.28408
 H2015 H 0.08122 0.78287 0.34864
 H2016 H 0.04834 0.76115 0.32632
 C2017 C 0.58260 0.69381 0.70035
 C2018 C 0.57358 0.68001 0.72298
 C2019 C 0.55596 0.69194 0.73551
 C2020 C 0.54882 0.71654 0.72438
 C2021 C 0.57274 0.73049 0.72266
 C2022 C 0.59041 0.71861 0.71012
 C2023 C 0.55959 0.69884 0.68527
 C2024 C 0.54192 0.71074 0.69784
 H2025 H 0.57987 0.66236 0.72875
 H2026 H 0.54772 0.68432 0.75170
 H2027 H 0.57558 0.74815 0.73075
 H2028 H 0.60836 0.72607 0.70751
 H2029 H 0.55732 0.69328 0.66642
 H2030 H 0.52454 0.71537 0.68972
 C2031 C 0.58481 0.18761 0.19579
 C2032 C 0.57561 0.17392 0.21841
 C2033 C 0.55849 0.18630 0.23120
 C2034 C 0.55198 0.21116 0.22026
 C2035 C 0.57626 0.22442 0.21835
 C2036 C 0.59343 0.21211 0.20558
 C2037 C 0.56179 0.19334 0.18096
 C2038 C 0.54461 0.20569 0.19377
 H2039 H 0.58114 0.15588 0.22372
 H2040 H 0.54996 0.17872 0.24726
 H2041 H 0.57971 0.24195 0.22648
 H2042 H 0.61157 0.21907 0.20281
 H2043 H 0.55916 0.18789 0.16212
 H2044 H 0.52726 0.21083 0.18588
 C2045 C 0.08727 0.69235 0.20099
 C2046 C 0.07756 0.67953 0.22394
 C2047 C 0.05947 0.69192 0.23533
 C2048 C 0.05262 0.71592 0.22285
 C2049 C 0.07653 0.72991 0.22126
 C2050 C 0.09465 0.71759 0.20986
 C2051 C 0.06474 0.69655 0.18495
 C2052 C 0.04662 0.70889 0.19639
 H2053 H 0.08367 0.66216 0.23069
 H2054 H 0.05068 0.68498 0.25155
 H2055 H 0.07904 0.74793 0.22860
 H2056 H 0.11264 0.72504 0.20749
 H2057 H 0.06312 0.69013 0.16632
 H2058 H 0.02947 0.71303 0.18751
 C2059 C 0.08274 0.19227 0.69986
 C2060 C 0.05912 0.19595 0.68537
 C2061 C 0.04158 0.20802 0.69794
 C2062 C 0.04922 0.21532 0.72389
 C2063 C 0.05738 0.19151 0.73601
 C2064 C 0.07488 0.17941 0.72349
 C2065 C 0.09021 0.21771 0.70809
 C2066 C 0.07266 0.22977 0.72063
 H2067 H 0.05638 0.18941 0.66691
 H2068 H 0.02382 0.21181 0.69022
 H2069 H 0.04995 0.18456 0.75290
 H2070 H 0.08193 0.16231 0.73001
 H2071 H 0.10788 0.22545 0.70453
 H2072 H 0.07532 0.24785 0.72781
 C2073 C 0.41777 0.68916 0.30251
 C2074 C 0.43349 0.70619 0.31808
 C2075 C 0.45105 0.71761 0.30523
 C2076 C 0.45156 0.71089 0.27799
 C2077 C 0.45384 0.68315 0.27785
 C2078 C 0.43613 0.67174 0.29071
 C2079 C 0.40814 0.70480 0.28147
 C2080 C 0.42581 0.71616 0.26864
 H2081 H 0.43205 0.70815 0.33770
 H2082 H 0.46411 0.72940 0.31397
 H2083 H 0.46836 0.67336 0.26882
 H2084 H 0.43560 0.65225 0.29272
 H2085 H 0.38904 0.70671 0.27705
 H2086 H 0.42183 0.72781 0.25319
 C2087 C 0.41290 0.19463 0.80325
 C2088 C 0.42299 0.21718 0.81622
 C2089 C 0.44093 0.22835 0.80358
 C2090 C 0.44725 0.21604 0.77919
 C2091 C 0.45320 0.18976 0.78610
 C2092 C 0.43524 0.17856 0.79870
 C2093 C 0.40511 0.20363 0.77788
 C2094 C 0.42307 0.21479 0.76530
 H2095 H 0.41719 0.22381 0.83385
 H2096 H 0.44996 0.24430 0.81057
 H2097 H 0.47019 0.18083 0.78171
 H2098 H 0.43686 0.16007 0.80510
 H2099 H 0.38693 0.20158 0.77058
 H2100 H 0.42025 0.22231 0.74721
 C2101 C 0.91369 0.69219 0.80462
 C2102 C 0.92367 0.71421 0.81859
 C2103 C 0.94179 0.72581 0.80666
 C2104 C 0.94841 0.71441 0.78192
 C2105 C 0.95421 0.68787 0.78790
 C2106 C 0.93604 0.67624 0.79978
 C2107 C 0.90627 0.70214 0.77951
 C2108 C 0.92443 0.71375 0.76764
 H2109 H 0.91771 0.72018 0.83640
 H2110 H 0.95078 0.74144 0.81440
 H2111 H 0.97125 0.67907 0.78341
 H2112 H 0.93752 0.65750 0.80546
 H2113 H 0.88820 0.70039 0.77186
 H2114 H 0.92189 0.72192 0.74980
 C2115 C 0.91639 0.18669 0.29742
 C2116 C 0.92551 0.17373 0.27429
 C2117 C 0.94299 0.18614 0.26219
 C2118 C 0.94989 0.21031 0.27425
 C2119 C 0.92582 0.22418 0.27655
 C2120 C 0.90832 0.21185 0.28866
 C2121 C 0.93941 0.19110 0.31264
 C2122 C 0.95690 0.20350 0.30052
 H2123 H 0.91960 0.15614 0.26811
 H2124 H 0.95142 0.17905 0.24580
 H2125 H 0.92278 0.24214 0.26916
 H2126 H 0.89030 0.21921 0.29162
 H2127 H 0.94182 0.18476 0.33123
 H2128 H 0.97427 0.20778 0.30877
 C2129 C 0.29812 0.31410 0.58542
 C2130 C 0.31308 0.30956 0.56228
 C2131 C 0.30090 0.29733 0.54460
 C2132 C 0.27481 0.29076 0.55157
 C2133 C 0.27712 0.27687 0.57573
 C2134 C 0.28930 0.28907 0.59341
 C2135 C 0.27511 0.32731 0.57631
 C2136 C 0.26291 0.31502 0.55858
 H2137 H 0.33156 0.31574 0.55991
 H2138 H 0.30898 0.29303 0.52709
 H2139 H 0.26960 0.25904 0.57874
 H2140 H 0.29220 0.28171 0.61155
 H2141 H 0.26896 0.34484 0.58259
 H2142 H 0.24652 0.32211 0.55018
 C2143 C 0.30097 0.81387 0.08551
 C2144 C 0.29203 0.78879 0.09325
 C2145 C 0.27934 0.77704 0.07560
 C2146 C 0.27667 0.79140 0.05177
 C2147 C 0.26527 0.81567 0.05947
 C2148 C 0.27797 0.82750 0.07708
 C2149 C 0.31543 0.80953 0.06199
 C2150 C 0.30270 0.79776 0.04432
 H2151 H 0.29524 0.78107 0.11117
 H2152 H 0.27168 0.75924 0.07842
 H2153 H 0.24893 0.82328 0.05142
 H2154 H 0.27224 0.84510 0.08351
 H2155 H 0.33395 0.81547 0.05938
 H2156 H 0.31036 0.79362 0.02658
 C2157 C 0.79941 0.31383 0.08252
 C2158 C 0.77613 0.32729 0.07460
 C2159 C 0.76344 0.31566 0.05683
 C2160 C 0.77511 0.29172 0.04850
 C2161 C 0.80098 0.29862 0.04097
 C2162 C 0.81369 0.31019 0.05877
 C2163 C 0.79089 0.28847 0.08979
 C2164 C 0.77821 0.27691 0.07200
 H2165 H 0.77011 0.34458 0.08163
 H2166 H 0.74684 0.32312 0.04919
 H2167 H 0.80853 0.29495 0.02308
 H2168 H 0.83210 0.31645 0.05612
 H2169 H 0.79440 0.28040 0.10750
 H2170 H 0.77090 0.25892 0.07449
 C2171 C 0.80426 0.80804 0.58788
 C2172 C 0.81493 0.78330 0.58043
 C2173 C 0.80257 0.77234 0.56213
 C2174 C 0.78050 0.78681 0.55287
 C2175 C 0.76526 0.79155 0.57583
 C2176 C 0.77770 0.80263 0.59418
 C2177 C 0.80311 0.82273 0.56413
 C2178 C 0.79070 0.81160 0.54579
 H2179 H 0.82999 0.77423 0.58927
 H2180 H 0.80767 0.75453 0.55554
 H2181 H 0.74641 0.78634 0.57761
 H2182 H 0.76949 0.80686 0.61164
 H2183 H 0.81145 0.84030 0.56194
 H2184 H 0.78843 0.81967 0.52787
 C2185 C 0.31510 0.69470 0.41211
 C2186 C 0.29055 0.70558 0.40454
 C2187 C 0.27882 0.71723 0.42292
 C2188 C 0.29265 0.71700 0.44728
 C2189 C 0.29774 0.69017 0.45256
 C2190 C 0.30952 0.67848 0.43416
 C2191 C 0.32947 0.71598 0.42294
 C2192 C 0.31767 0.72764 0.44126
 H2193 H 0.28314 0.70431 0.38623
 H2194 H 0.26132 0.72593 0.42034
 H2195 H 0.29275 0.68123 0.46942
 H2196 H 0.31464 0.65956 0.43528
 H2197 H 0.34764 0.72108 0.41773
 H2198 H 0.32586 0.74259 0.45103
 C2199 C 0.30793 0.18815 0.91092
 C2200 C 0.32458 0.19165 0.93316
 C2201 C 0.31380 0.20349 0.95207
 C2202 C 0.28733 0.21077 0.94704
 C2203 C 0.28808 0.22544 0.92328
 C2204 C 0.29882 0.21362 0.90440
 C2205 C 0.28551 0.17509 0.92112
 C2206 C 0.27475 0.18698 0.93998
 H2207 H 0.34315 0.18513 0.93403
 H2208 H 0.32316 0.20711 0.96912
 H2209 H 0.28056 0.24351 0.92140
 H2210 H 0.30048 0.22155 0.88638
 H2211 H 0.27873 0.15787 0.91480
 H2212 H 0.25902 0.17979 0.94925
 C2213 C 0.80769 0.68406 0.91035
 C2214 C 0.82413 0.68685 0.93285
 C2215 C 0.81338 0.69863 0.95179
 C2216 C 0.78714 0.70656 0.94653
 C2217 C 0.78851 0.72157 0.92303
 C2218 C 0.79921 0.70981 0.90412
 C2219 C 0.78486 0.67133 0.92003
 C2220 C 0.77412 0.68317 0.93894
 H2221 H 0.84253 0.67989 0.93386
 H2222 H 0.82260 0.70177 0.96902
 H2223 H 0.78139 0.73983 0.92134
 H2224 H 0.80126 0.71797 0.88624
 H2225 H 0.77780 0.65437 0.91330
 H2226 H 0.75810 0.67621 0.94789
 C2227 C 0.82026 0.18927 0.41275
 C2228 C 0.79570 0.20049 0.40579
 C2229 C 0.78445 0.21202 0.42453
 C2230 C 0.79872 0.21136 0.44862
 C2231 C 0.80363 0.18442 0.45347
 C2232 C 0.81495 0.17285 0.43470
 C2233 C 0.83506 0.21028 0.42355
 C2234 C 0.82373 0.22184 0.44226
 H2235 H 0.78792 0.19954 0.38761
 H2236 H 0.76700 0.22089 0.42237
 H2237 H 0.79891 0.17533 0.47033
 H2238 H 0.81992 0.15387 0.43550
 H2239 H 0.85317 0.21523 0.41797
 H2240 H 0.83221 0.23660 0.45207
 C2241 C 0.70604 0.30678 0.41435
 C2242 C 0.69120 0.30351 0.43777
 C2243 C 0.70324 0.29135 0.45573
 C2244 C 0.72906 0.28353 0.44871
 C2245 C 0.72603 0.26902 0.42502
 C2246 C 0.71403 0.28116 0.40706
 C2247 C 0.72955 0.31927 0.42285
 C2248 C 0.74156 0.30705 0.44080
 H2249 H 0.67291 0.31042 0.44008
 H2250 H 0.69522 0.28786 0.47344
 H2251 H 0.73282 0.25075 0.42255
 H2252 H 0.71063 0.27333 0.38924
 H2253 H 0.73635 0.33622 0.41588
 H2254 H 0.75829 0.31371 0.44872
 C2255 C 0.69823 0.80846 0.91750
 C2256 C 0.68426 0.80483 0.94140
 C2257 C 0.69668 0.79180 0.95844
 C2258 C 0.72197 0.78359 0.95009
 C2259 C 0.71765 0.76990 0.92613
 C2260 C 0.70526 0.78290 0.90907
 C2261 C 0.72234 0.82014 0.92537
 C2262 C 0.73474 0.80706 0.94241
 H2263 H 0.66626 0.81210 0.94469
 H2264 H 0.68928 0.78793 0.97633
 H2265 H 0.72407 0.75162 0.92276
 H2266 H 0.70106 0.77578 0.89111
 H2267 H 0.72919 0.83719 0.91874
 H2268 H 0.75192 0.81310 0.94987
 C2269 C 0.19856 0.30981 0.91417
 C2270 C 0.20669 0.28431 0.90659
 C2271 C 0.21855 0.27192 0.92452
 C2272 C 0.22127 0.28610 0.94845
 C2273 C 0.23374 0.30978 0.94105
 C2274 C 0.22192 0.32223 0.92320
 C2275 C 0.18345 0.30614 0.93737
 C2276 C 0.19533 0.29374 0.95530
 H2277 H 0.20354 0.27677 0.88860
 H2278 H 0.22556 0.25375 0.92183
 H2279 H 0.25023 0.31654 0.94941
 H2280 H 0.22862 0.33946 0.91692
 H2281 H 0.16510 0.31293 0.93955
 H2282 H 0.18711 0.28992 0.97284
 C2283 C 0.19896 0.81410 0.41535
 C2284 C 0.20709 0.78878 0.40722
 C2285 C 0.21940 0.77624 0.42467
 C2286 C 0.22253 0.79011 0.44873
 C2287 C 0.23473 0.81397 0.44141
 C2288 C 0.22241 0.82660 0.42396
 C2289 C 0.18439 0.81005 0.43881
 C2290 C 0.19672 0.79748 0.45627
 H2291 H 0.20362 0.78147 0.38918
 H2292 H 0.22644 0.75816 0.42157
 H2293 H 0.25140 0.82062 0.44947
 H2294 H 0.22879 0.84395 0.41761
 H2295 H 0.16608 0.81674 0.44153
 H2296 H 0.18892 0.79342 0.47395
 C2297 C 0.68183 0.69998 0.58701
 C2298 C 0.70772 0.70744 0.59392
 C2299 C 0.71979 0.71883 0.57571
 C2300 C 0.70496 0.72179 0.55214
 C2301 C 0.69668 0.69615 0.54550
 C2302 C 0.68456 0.68475 0.56373
 C2303 C 0.66943 0.72354 0.57837
 C2304 C 0.68161 0.73494 0.56012
 H2305 H 0.71573 0.70426 0.61175
 H2306 H 0.73817 0.72540 0.57797
 H2307 H 0.69980 0.68782 0.52785
 H2308 H 0.67730 0.66668 0.56168
 H2309 H 0.65245 0.73059 0.58529
 H2310 H 0.67495 0.75156 0.55192
 C2311 C 0.68345 0.19546 0.08345
 C2312 C 0.68839 0.18038 0.06042
 C2313 C 0.69964 0.19292 0.04233
 C2314 C 0.70491 0.21939 0.04890
 C2315 C 0.68011 0.22997 0.05619
 C2316 C 0.66882 0.21747 0.07418
 C2317 C 0.70821 0.20568 0.09089
 C2318 C 0.71943 0.21818 0.07282
 H2319 H 0.68324 0.16159 0.05844
 H2320 H 0.70412 0.18483 0.02487
 H2321 H 0.67170 0.24551 0.04749
 H2322 H 0.65083 0.22253 0.08017
 H2323 H 0.71614 0.20336 0.10888
 H2324 H 0.73701 0.22654 0.07537
 C2325 C 0.18927 0.69358 0.09017
 C2326 C 0.17169 0.69939 0.06912
 C2327 C 0.18206 0.71186 0.05044
 C2328 C 0.20906 0.71742 0.05449
 C2329 C 0.21012 0.73055 0.07915
 C2330 C 0.19979 0.71808 0.09780
 C2331 C 0.21051 0.68008 0.07787
 C2332 C 0.22082 0.69259 0.05933
 H2333 H 0.15283 0.69394 0.06885
 H2334 H 0.17203 0.71709 0.03419
 H2335 H 0.21844 0.74809 0.08174
 H2336 H 0.19926 0.72494 0.11634
 H2337 H 0.21652 0.66195 0.08223
 H2338 H 0.23549 0.68501 0.04858
 C2339 C 0.18041 0.19734 0.58556
 C2340 C 0.16680 0.21975 0.57573
 C2341 C 0.17891 0.23150 0.55766
 C2342 C 0.20339 0.21977 0.55102
 C2343 C 0.21742 0.21842 0.57523
 C2344 C 0.20542 0.20670 0.59327
 C2345 C 0.18509 0.18171 0.56286
 C2346 C 0.19716 0.19345 0.54481
 H2347 H 0.14899 0.22562 0.58158
 H2348 H 0.17142 0.24731 0.54861
 H2349 H 0.23522 0.22622 0.57801
 H2350 H 0.21291 0.20446 0.61146
 H2351 H 0.17913 0.16315 0.56104
 H2352 H 0.20154 0.18490 0.52754
   
