data_POSCAR
  _audit_creation_date              2014-09-24
  _audit_creation_method            'ToBaCCo'
  _symmetry_space_group_name_H-M    'P1'
  _symmetry_Int_Tables_number       1
  _symmetry_cell_setting            triclinic
  loop_
  _symmetry_equiv_pos_as_xyz
 x,y,z
_cell_length_a 47.9381
_cell_length_b 47.4898
_cell_length_c 48.0083
_cell_angle_alpha 90.858300
_cell_angle_beta 90.107300
_cell_angle_gamma 83.749300
loop_
  _atom_site_label
  _atom_site_type_symbol
  _atom_site_fract_x
  _atom_site_fract_y
  _atom_site_fract_z
C1 C 1.23079 0.23424 0.21533
 C2 C 1.24833 0.25302 0.19864
 C3 C 1.26556 0.26795 0.21425
 C4 C 1.26332 0.26293 0.24578
 C5 C 1.25214 0.21580 0.23302
 C6 C 1.26932 0.23061 0.24885
 C7 C 1.21508 0.25432 0.23683
 C8 C 1.23194 0.26924 0.25294
 H9 H 1.24690 0.25436 0.17618
 H10 H 1.27732 0.27495 0.25860
 H11 H 1.25224 0.19304 0.23424
 H12 H 1.19279 0.25534 0.24048
 C13 C 0.74015 -0.27071 0.19802
 C14 C 0.75364 -0.24746 0.18303
 C15 C 0.76774 -0.23072 0.20008
 C16 C 0.76673 -0.23853 0.23107
 C17 C 0.76419 -0.28678 0.21462
 C18 C 0.77806 -0.27008 0.23198
 C19 C 0.72173 -0.25516 0.22070
 C20 C 0.73541 -0.23834 0.23796
 H21 H 0.75354 -0.24569 0.16056
 H22 H 0.77794 -0.22470 0.24505
 H23 H 0.76727 -0.30959 0.21608
 H24 H 0.69979 -0.25803 0.22341
 C25 C 0.72980 0.22781 -0.29831
 C26 C 0.74299 0.24927 -0.31312
 C27 C 0.75864 0.26677 -0.29582
 C28 C 0.75754 0.25941 -0.26621
 C29 C 0.75242 0.21198 -0.28274
 C30 C 0.76789 0.22916 -0.26480
 C31 C 0.71268 0.24313 -0.27679
 C32 C 0.72757 0.26097 -0.25901
 H33 H 0.74361 0.24961 -0.33567
 H34 H 0.76939 0.27286 -0.25279
 H35 H 0.75291 0.18955 -0.27901
 H36 H 0.69032 0.24196 -0.27526
 C37 C 1.22941 -0.26939 -0.28962
 C38 C 1.24525 -0.24917 -0.30642
 C39 C 1.26261 -0.23416 -0.29105
 C40 C 1.26256 -0.24086 -0.25975
 C41 C 1.25227 -0.28792 -0.27389
 C42 C 1.26969 -0.27317 -0.25840
 C43 C 1.21436 -0.25079 -0.26653
 C44 C 1.23155 -0.23578 -0.25091
 H45 H 1.24358 -0.24785 -0.32887
 H46 H 1.27672 -0.22890 -0.24701
 H47 H 1.25321 -0.31080 -0.27336
 H48 H 1.19222 -0.25013 -0.26215
 C49 C 0.23119 0.23193 0.78693
 C50 C 0.24825 0.25010 0.80234
 C51 C 0.26465 0.26687 0.78554
 C52 C 0.26072 0.26180 0.75564
 C53 C 0.21354 0.25165 0.76690
 C54 C 0.22888 0.26738 0.75054
 C55 C 0.25168 0.21408 0.76740
 C56 C 0.26715 0.22955 0.75084
 H57 H 0.24985 0.24903 0.82479
 H58 H 0.27247 0.27426 0.74145
 H59 H 0.19106 0.25209 0.76472
 H60 H 0.25280 0.19123 0.76599
 C61 C 0.72958 0.73095 0.80162
 C62 C 0.74513 0.75110 0.81665
 C63 C 0.76022 0.76843 0.79897
 C64 C 0.75684 0.76172 0.76914
 C65 C 0.71181 0.74800 0.78233
 C66 C 0.72645 0.76477 0.76397
 C67 C 0.75072 0.71464 0.78451
 C68 C 0.76537 0.73113 0.76578
 H69 H 0.74995 0.74948 0.83857
 H70 H 0.76797 0.77479 0.75506
 H71 H 0.68911 0.74928 0.78316
 H72 H 0.75593 0.69202 0.78687
 C73 C 0.72653 0.22799 0.29770
 C74 C 0.74124 0.25011 0.31405
 C75 C 0.75534 0.26711 0.29783
 C76 C 0.75363 0.26032 0.26644
 C77 C 0.70814 0.24498 0.27648
 C78 C 0.72209 0.26180 0.26000
 C79 C 0.75029 0.21189 0.28045
 C80 C 0.76420 0.22863 0.26373
 H81 H 0.74253 0.25068 0.33656
 H82 H 0.76517 0.27412 0.25322
 H83 H 0.68573 0.24390 0.27500
 H84 H 0.75512 0.18912 0.28076
 C85 C 0.21773 0.73319 0.28986
 C86 C 0.23646 0.75128 0.30656
 C87 C 0.25403 0.76528 0.29091
 C88 C 0.25143 0.75957 0.25934
 C89 C 0.20261 0.75380 0.26887
 C90 C 0.22014 0.76745 0.25275
 C91 C 0.23801 0.71359 0.27181
 C92 C 0.25555 0.72711 0.25571
 H93 H 0.23590 0.75251 0.32910
 H94 H 0.26563 0.77071 0.24624
 H95 H 0.18019 0.75711 0.26616
 H96 H 0.23779 0.69081 0.27137
 N97 N 1.02373 0.03641 0.04739
 N98 N 1.04305 0.04201 0.06570
 N99 N 0.96262 0.05433 0.02811
 N100 N 0.94340 0.07511 0.03568
 N101 N 0.96535 0.03473 0.04727
 N102 N 0.94807 0.04171 0.06820
 N103 N 1.02105 0.05575 0.02805
 N104 N 1.03850 0.07496 0.03258
 C105 C 1.05222 0.06607 0.05607
 C106 C 0.93413 0.06669 0.06052
 N107 N 0.96559 0.03385 -0.05175
 N108 N 0.94858 0.04070 -0.07281
 N109 N 1.02127 0.05509 -0.03171
 N110 N 1.03918 0.07387 -0.03550
 N111 N 1.02401 0.03544 -0.05132
 N112 N 1.04380 0.04043 -0.06912
 N113 N 0.96283 0.05379 -0.03233
 N114 N 0.94392 0.07463 -0.03985
 Mn115 Mn 0.99186 0.05495 -0.00197
 C116 C 0.93479 0.06594 -0.06493
 C117 C 1.05319 0.06444 -0.05886
 N118 N 0.97361 -0.02641 0.04685
 N119 N 0.95515 -0.03219 0.06573
 N120 N 1.03507 -0.04439 0.02776
 N121 N 1.05654 -0.06327 0.03349
 N122 N 1.03204 -0.02460 0.04723
 N123 N 1.05127 -0.02956 0.06677
 N124 N 0.97663 -0.04646 0.02759
 N125 N 0.96039 -0.06647 0.03298
 Mn126 Mn 0.99866 0.00502 0.04741
 C127 C 0.94688 -0.05715 0.05671
 C128 C 1.06665 -0.05356 0.05777
 N129 N 1.03233 -0.02565 -0.05171
 N130 N 1.05207 -0.03076 -0.07082
 N131 N 0.97688 -0.04706 -0.03271
 N132 N 0.96084 -0.06730 -0.03841
 N133 N 0.97389 -0.02745 -0.05184
 N134 N 0.95563 -0.03381 -0.07095
 N135 N 1.03527 -0.04493 -0.03229
 N136 N 1.05719 -0.06355 -0.03759
 Mn137 Mn 0.99892 0.00403 -0.05191
 Mn138 Mn 1.00599 -0.04599 -0.00242
 Cl139 Cl 0.99874 0.00450 -0.00223
 C140 C 1.06764 -0.05430 -0.06157
 C141 C 0.94749 -0.05865 -0.06218
 N142 N 0.95967 0.52851 0.45243
 N143 N 0.94338 0.53537 0.43084
 N144 N 1.01455 0.55056 0.47296
 N145 N 1.03156 0.57008 0.46882
 N146 N 1.01795 0.53071 0.45359
 N147 N 1.03737 0.53628 0.43561
 N148 N 0.95628 0.54844 0.47181
 N149 N 0.93761 0.56926 0.46376
 C150 C 0.92932 0.56057 0.43838
 C151 C 1.04582 0.56086 0.44556
 N152 N 1.01672 0.53246 0.55207
 N153 N 1.03642 0.53811 0.56993
 N154 N 0.95548 0.54948 0.53210
 N155 N 0.93660 0.57063 0.53939
 N156 N 0.95847 0.53051 0.55187
 N157 N 0.94183 0.53851 0.57308
 N158 N 1.01380 0.55160 0.53254
 N159 N 1.03148 0.57068 0.53644
 Mn160 Mn 0.98492 0.55018 0.50237
 C161 C 1.04552 0.56200 0.55978
 C162 C 0.92788 0.56327 0.56477
 N163 N 1.02680 0.46973 0.45374
 N164 N 1.04703 0.46502 0.43511
 N165 N 0.97112 0.44804 0.47229
 N166 N 0.95440 0.42827 0.46700
 N167 N 0.96851 0.46744 0.45296
 N168 N 0.94991 0.46144 0.43409
 N169 N 1.02956 0.45043 0.47313
 N170 N 1.05188 0.43215 0.46827
 Mn171 Mn 0.99324 0.49905 0.45294
 C172 C 1.06270 0.44168 0.44457
 C173 C 0.94114 0.43703 0.44319
 N174 N 0.96715 0.46919 0.55183
 N175 N 0.94877 0.46327 0.57075
 N176 N 1.02875 0.45153 0.53311
 N177 N 1.05071 0.43321 0.53866
 N178 N 1.02549 0.47143 0.55246
 N179 N 1.04504 0.46707 0.57179
 N180 N 0.97040 0.44907 0.53265
 N181 N 0.95440 0.42889 0.53814
 Mn182 Mn 0.99194 0.50087 0.55231
 Mn183 Mn 0.99997 0.44945 0.50279
 Cl184 Cl 0.99238 0.49988 0.50261
 C185 C 0.94080 0.43815 0.56182
 C186 C 1.06083 0.44333 0.56274
 N187 N 0.54898 0.01342 0.52780
 N188 N 0.56768 0.03159 0.53093
 N189 N 0.52743 -0.04139 0.54906
 N190 N 0.53429 -0.05748 0.57070
 N191 N 0.54690 -0.04539 0.52973
 N192 N 0.56742 -0.06435 0.53783
 N193 N 0.52966 0.01735 0.54720
 N194 N 0.53484 0.03824 0.56427
 C195 C 0.55861 0.04699 0.55370
 C196 C 0.55902 -0.07208 0.56324
 N197 N 0.44743 -0.03037 0.52921
 N198 N 0.42754 -0.04654 0.53496
 N199 N 0.46922 0.02625 0.54706
 N200 N 0.46435 0.04659 0.56598
 N201 N 0.44974 0.02850 0.52771
 N202 N 0.43114 0.05056 0.53297
 N203 N 0.46687 -0.03252 0.54861
 N204 N 0.46073 -0.05025 0.56803
 Mn205 Mn 0.49827 -0.00758 0.54822
 C206 C 0.43622 -0.05902 0.55913
 C207 C 0.44072 0.06183 0.55678
 N208 N 0.54702 -0.04782 0.46943
 N209 N 0.56753 -0.06751 0.46255
 N210 N 0.52980 0.01345 0.44893
 N211 N 0.53465 0.03335 0.43122
 N212 N 0.54922 0.01089 0.46828
 N213 N 0.56785 0.02888 0.46430
 N214 N 0.52776 -0.04545 0.44982
 N215 N 0.53479 -0.06353 0.42920
 Mn216 Mn 0.54822 -0.01734 0.49881
 C217 C 0.55939 -0.07752 0.43764
 C218 C 0.55849 0.04281 0.44115
 N219 N 0.44978 0.02600 0.46760
 N220 N 0.43129 0.04771 0.46148
 N221 N 0.46710 -0.03642 0.44969
 N222 N 0.46069 -0.05505 0.43069
 N223 N 0.44756 -0.03279 0.46895
 N224 N 0.42734 -0.04884 0.46352
 N225 N 0.46952 0.02246 0.44856
 N226 N 0.46512 0.04179 0.42912
 Mn227 Mn 0.44833 -0.00214 0.49838
 Mn228 Mn 0.49853 -0.01151 0.44899
 Cl229 Cl 0.49832 -0.00977 0.49860
 C230 C 0.44133 0.05757 0.43757
 C231 C 0.43595 -0.06286 0.43974
 N232 N 0.46424 0.54689 -0.02786
 N233 N 0.45887 0.56644 -0.04691
 N234 N 0.44458 0.52813 0.02980
 N235 N 0.42472 0.53500 0.04848
 N236 N 0.46328 0.54637 0.03061
 N237 N 0.45671 0.56606 0.04988
 N238 N 0.44550 0.52871 -0.02872
 N239 N 0.42674 0.53552 -0.04837
 C240 C 0.43553 0.55901 -0.05970
 C241 C 0.43275 0.55856 0.06106
 N242 N 0.46789 0.44621 0.02819
 N243 N 0.46319 0.42713 0.04684
 N244 N 0.44842 0.46767 -0.03028
 N245 N 0.42961 0.46353 -0.04958
 N246 N 0.46867 0.44666 -0.03039
 N247 N 0.46404 0.42763 -0.04972
 N248 N 0.44740 0.46697 0.02823
 N249 N 0.42816 0.46246 0.04681
 Mn250 Mn 0.44617 0.49788 -0.00024
 C251 C 0.43843 0.43766 0.05849
 C252 C 0.43974 0.43862 -0.06177
 N253 N 0.52367 0.54288 0.03154
 N254 N 0.53002 0.56360 0.04823
 N255 N 0.54486 0.52244 -0.02690
 N256 N 0.56530 0.52814 -0.04355
 N257 N 0.52443 0.54323 -0.02685
 N258 N 0.53041 0.56354 -0.04356
 N259 N 0.54395 0.52192 0.03144
 N260 N 0.56449 0.52787 0.04810
 Mn261 Mn 0.49384 0.54504 0.00188
 C262 C 0.55532 0.55371 0.05884
 C263 C 0.55579 0.55363 -0.05417
 N264 N 0.52940 0.44294 -0.02939
 N265 N 0.53681 0.42313 -0.04840
 N266 N 0.54665 0.46116 0.02996
 N267 N 0.56576 0.45478 0.04929
 N268 N 0.52845 0.44242 0.02914
 N269 N 0.53481 0.42266 0.04788
 N270 N 0.54766 0.46163 -0.02847
 N271 N 0.56786 0.45511 -0.04680
 Mn272 Mn 0.49860 0.44424 -0.00063
 Mn273 Mn 0.54595 0.49173 0.00151
 Cl274 Cl 0.49613 0.49470 0.00064
 C275 C 0.56072 0.43122 -0.05932
 C276 C 0.55801 0.43085 0.06048
 C277 C 1.18098 0.18394 0.16183
 C278 C 1.16826 0.20828 0.17564
 C279 C 1.18405 0.22480 0.19248
 C280 C 1.21299 0.21709 0.19652
 C281 C 1.22586 0.19340 0.18159
 C282 C 1.21005 0.17689 0.16472
 C283 C 1.16389 0.16594 0.14467
 C284 C 1.16898 0.13623 0.14536
 C285 C 1.15215 0.11930 0.13010
 C286 C 1.12984 0.13169 0.11379
 C287 C 1.12502 0.16140 0.11282
 C288 C 1.14186 0.17831 0.12802
 C289 C 1.11121 0.11384 0.09833
 C290 C 1.10108 0.12165 0.07174
 C291 C 1.08230 0.10582 0.05785
 C292 C 1.07330 0.08175 0.07019
 C293 C 1.08393 0.07345 0.09643
 C294 C 1.10266 0.08936 0.11039
 H295 H 1.14592 0.21440 0.17376
 H296 H 1.17331 0.24369 0.20194
 H297 H 1.24827 0.18752 0.18313
 H298 H 1.22063 0.15872 0.15373
 H299 H 1.18562 0.12604 0.15818
 H300 H 1.15661 0.09649 0.13105
 H301 H 1.10782 0.17165 0.10073
 H302 H 1.13761 0.20111 0.12674
 H303 H 1.10764 0.14007 0.06165
 H304 H 1.07462 0.11259 0.03753
 H305 H 1.07731 0.05500 0.10644
 H306 H 1.10981 0.08294 0.13098
 C307 C 1.17789 0.68064 0.65865
 C308 C 1.16563 0.70489 0.67291
 C309 C 1.18203 0.72140 0.68908
 C310 C 1.21110 0.71371 0.69195
 C311 C 1.22349 0.69030 0.67631
 C312 C 1.20708 0.67379 0.66015
 C313 C 1.16021 0.66245 0.64254
 C314 C 1.16538 0.63277 0.64359
 C315 C 1.14799 0.61564 0.62936
 C316 C 1.12508 0.62782 0.61375
 C317 C 1.12014 0.65750 0.61244
 C318 C 1.13752 0.67461 0.62663
 C319 C 1.10599 0.60981 0.59929
 C320 C 1.09529 0.61716 0.57281
 C321 C 1.07603 0.60127 0.55984
 C322 C 1.06712 0.57761 0.57301
 C323 C 1.07834 0.56971 0.59913
 C324 C 1.09758 0.58570 0.61218
 H325 H 1.14320 0.71088 0.67199
 H326 H 1.17165 0.74020 0.69904
 H327 H 1.24597 0.68455 0.67679
 H328 H 1.21725 0.65572 0.64868
 H329 H 1.18255 0.62279 0.65589
 H330 H 1.15249 0.59284 0.63053
 H331 H 1.10247 0.66755 0.60086
 H332 H 1.13318 0.69739 0.62515
 H333 H 1.10176 0.63528 0.56212
 H334 H 1.06790 0.60769 0.53957
 H335 H 1.07179 0.55157 0.60973
 H336 H 1.10525 0.57966 0.63270
 C337 C 0.67918 0.18038 0.64846
 C338 C 0.67152 0.20922 0.65425
 C339 C 0.68854 0.22457 0.67094
 C340 C 0.71354 0.21146 0.68296
 C341 C 0.72201 0.18293 0.67525
 C342 C 0.70487 0.16761 0.65867
 C343 C 0.66023 0.16346 0.63235
 C344 C 0.67124 0.14229 0.61342
 C345 C 0.65360 0.12512 0.59968
 C346 C 0.62447 0.12882 0.60433
 C347 C 0.61337 0.15044 0.62276
 C348 C 0.63105 0.16753 0.63665
 C349 C 0.60602 0.10955 0.59065
 C350 C 0.58356 0.09986 0.60524
 C351 C 0.56750 0.08013 0.59297
 C352 C 0.57379 0.06953 0.56601
 C353 C 0.59566 0.07977 0.55114
 C354 C 0.61150 0.09966 0.56326
 H355 H 0.65230 0.21996 0.64589
 H356 H 0.68186 0.24680 0.67492
 H357 H 0.74183 0.17199 0.68171
 H358 H 0.71157 0.14546 0.65436
 H359 H 0.69356 0.13886 0.60933
 H360 H 0.66293 0.10845 0.58591
 H361 H 0.59100 0.15409 0.62654
 H362 H 0.62192 0.18345 0.65131
 H363 H 0.57896 0.10679 0.62649
 H364 H 0.55077 0.07251 0.60489
 H365 H 0.60074 0.07218 0.53017
 H366 H 0.62821 0.10714 0.55121
 C367 C 0.68823 0.67804 0.14854
 C368 C 0.71526 0.66673 0.15660
 C369 C 0.73282 0.68336 0.17120
 C370 C 0.72353 0.71166 0.17856
 C371 C 0.69744 0.72357 0.16820
 C372 C 0.67986 0.70691 0.15366
 C373 C 0.66842 0.65949 0.13606
 C374 C 0.65033 0.66910 0.11432
 C375 C 0.63114 0.65177 0.10330
 C376 C 0.62965 0.62449 0.11377
 C377 C 0.64775 0.61490 0.13549
 C378 C 0.66689 0.63222 0.14652
 C379 C 0.60974 0.60587 0.10165
 C380 C 0.61831 0.57702 0.09648
 C381 C 0.60019 0.55980 0.08351
 C382 C 0.57312 0.57107 0.07548
 C383 C 0.56416 0.59964 0.08153
 C384 C 0.58233 0.61690 0.09444
 H385 H 0.72273 0.64483 0.15190
 H386 H 0.75344 0.67366 0.17677
 H387 H 0.69007 0.74558 0.17247
 H388 H 0.65924 0.71636 0.14751
 H389 H 0.65123 0.68989 0.10562
 H390 H 0.61778 0.65954 0.08624
 H391 H 0.64682 0.59414 0.14424
 H392 H 0.68014 0.62444 0.16366
 H393 H 0.63938 0.56798 0.10159
 H394 H 0.60766 0.53785 0.07906
 H395 H 0.54338 0.60886 0.07561
 H396 H 0.57501 0.63894 0.09860
 C397 C 0.81922 -0.17192 0.16422
 C398 C 0.79182 -0.17365 0.15440
 C399 C 0.77480 -0.19217 0.16657
 C400 C 0.78468 -0.20910 0.18903
 C401 C 0.81164 -0.20658 0.19959
 C402 C 0.82884 -0.18832 0.18716
 C403 C 0.83807 -0.15413 0.14965
 C404 C 0.86565 -0.16515 0.14284
 C405 C 0.88296 -0.14910 0.12769
 C406 C 0.87320 -0.12155 0.11931
 C407 C 0.84580 -0.11030 0.12659
 C408 C 0.82834 -0.12650 0.14143
 C409 C 0.89149 -0.10475 0.10283
 C410 C 0.89382 -0.07625 0.10976
 C411 C 0.91166 -0.06071 0.09464
 C412 C 0.92725 -0.07325 0.07206
 C413 C 0.92452 -0.10158 0.06479
 C414 C 0.90696 -0.11722 0.08013
 H415 H 0.78392 -0.16140 0.13666
 H416 H 0.75401 -0.19357 0.15816
 H417 H 0.81987 -0.21955 0.21672
 H418 H 0.84980 -0.18723 0.19527
 H419 H 0.87360 -0.18648 0.14866
 H420 H 0.90407 -0.15820 0.12258
 H421 H 0.83770 -0.08917 0.12029
 H422 H 0.80722 -0.11745 0.14651
 H423 H 0.88226 -0.06617 0.12725
 H424 H 0.91335 -0.03890 0.10070
 H425 H 0.93627 -0.11180 0.04750
 H426 H 0.90532 -0.13906 0.07414
 C427 C 0.80963 0.32382 0.66669
 C428 C 0.81618 0.31313 0.69336
 C429 C 0.79893 0.29523 0.70638
 C430 C 0.77484 0.28710 0.69280
 C431 C 0.76786 0.29892 0.66658
 C432 C 0.78482 0.31706 0.65388
 C433 C 0.82888 0.34108 0.65167
 C434 C 0.83235 0.33799 0.62265
 C435 C 0.85021 0.35403 0.60828
 C436 C 0.86548 0.37342 0.62251
 C437 C 0.86217 0.37646 0.65157
 C438 C 0.84405 0.36053 0.66597
 C439 C 0.88483 0.39016 0.60700
 C440 C 0.88785 0.41838 0.61475
 C441 C 0.90595 0.43401 0.60004
 C442 C 0.92126 0.42188 0.57712
 C443 C 0.91819 0.39380 0.56925
 C444 C 0.90034 0.37808 0.58410
 H445 H 0.83527 0.31766 0.70378
 H446 H 0.80579 0.28646 0.72620
 H447 H 0.74890 0.29468 0.65578
 H448 H 0.77845 0.32575 0.63385
 H449 H 0.82147 0.32288 0.61093
 H450 H 0.85185 0.35136 0.58589
 H451 H 0.87383 0.39091 0.66330
 H452 H 0.84175 0.36367 0.68826
 H453 H 0.87595 0.42855 0.63196
 H454 H 0.90784 0.45566 0.60652
 H455 H 0.92990 0.38380 0.55182
 H456 H 0.89902 0.35628 0.57782
 C457 C 0.31636 -0.18042 0.66838
 C458 C 0.28896 -0.18232 0.65870
 C459 C 0.27130 -0.19906 0.67239
 C460 C 0.28063 -0.21446 0.69604
 C461 C 0.30771 -0.21185 0.70633
 C462 C 0.32541 -0.19494 0.69264
 C463 C 0.33549 -0.16391 0.65263
 C464 C 0.35252 -0.14589 0.66645
 C465 C 0.36970 -0.12965 0.65129
 C466 C 0.37032 -0.13125 0.62199
 C467 C 0.35374 -0.14982 0.60829
 C468 C 0.33649 -0.16588 0.62341
 C469 C 0.38763 -0.11321 0.60567
 C470 C 0.37731 -0.10098 0.58066
 C471 C 0.39328 -0.08374 0.56539
 C472 C 0.41989 -0.07817 0.57483
 C473 C 0.43036 -0.09045 0.59970
 C474 C 0.41442 -0.10782 0.61496
 H475 H 0.28120 -0.17086 0.64043
 H476 H 0.25032 -0.20004 0.66432
 H477 H 0.31564 -0.22368 0.72430
 H478 H 0.34648 -0.19397 0.70048
 H479 H 0.35201 -0.14381 0.68894
 H480 H 0.38195 -0.11532 0.66248
 H481 H 0.35417 -0.15206 0.58581
 H482 H 0.32403 -0.18004 0.61222
 H483 H 0.35660 -0.10429 0.57313
 H484 H 0.38460 -0.07445 0.54637
 H485 H 0.45086 -0.08658 0.60743
 H486 H 0.42315 -0.11720 0.63391
 C487 C 0.32303 0.32027 0.17656
 C488 C 0.31169 0.32719 0.20312
 C489 C 0.29317 0.31019 0.21548
 C490 C 0.28554 0.28593 0.20155
 C491 C 0.29719 0.27889 0.17516
 C492 C 0.31552 0.29588 0.16280
 C493 C 0.34217 0.33851 0.16282
 C494 C 0.36458 0.32633 0.14623
 C495 C 0.38126 0.34333 0.13151
 C496 C 0.37622 0.37304 0.13319
 C497 C 0.35440 0.38526 0.15053
 C498 C 0.33754 0.36821 0.16511
 C499 C 0.39286 0.39099 0.11590
 C500 C 0.37994 0.41576 0.10351
 C501 C 0.39500 0.43142 0.08555
 C502 C 0.42322 0.42253 0.07933
 C503 C 0.43640 0.39828 0.09223
 C504 C 0.42145 0.38278 0.11043
 H505 H 0.31723 0.34566 0.21444
 H506 H 0.28451 0.31638 0.23570
 H507 H 0.29234 0.26007 0.16399
 H508 H 0.32347 0.29007 0.14217
 H509 H 0.36910 0.30354 0.14435
 H510 H 0.39761 0.33310 0.11815
 H511 H 0.35016 0.40805 0.15268
 H512 H 0.32036 0.37834 0.17754
 H513 H 0.35790 0.42254 0.10689
 H514 H 0.38427 0.45000 0.07584
 H515 H 0.45823 0.39109 0.08801
 H516 H 0.43226 0.36420 0.12003
 C517 C 0.82354 0.18917 -0.20453
 C518 C 0.81106 0.21700 -0.19988
 C519 C 0.79355 0.23081 -0.22003
 C520 C 0.78768 0.21688 -0.24524
 C521 C 0.80116 0.18931 -0.25000
 C522 C 0.81872 0.17573 -0.23002
 C523 C 0.84064 0.17351 -0.18270
 C524 C 0.86491 0.15564 -0.19003
 C525 C 0.87953 0.13872 -0.17011
 C526 C 0.87029 0.13923 -0.14232
 C527 C 0.84659 0.15783 -0.13472
 C528 C 0.83191 0.17479 -0.15471
 C529 C 0.88516 0.11999 -0.12164
 C530 C 0.89034 0.12954 -0.09445
 C531 C 0.90571 0.11169 -0.07563
 C532 C 0.91611 0.08394 -0.08361
 C533 C 0.91009 0.07410 -0.11045
 C534 C 0.89481 0.09191 -0.12923
 H535 H 0.81457 0.22799 -0.18047
 H536 H 0.78353 0.25170 -0.21480
 H537 H 0.79841 0.17798 -0.26937
 H538 H 0.82793 0.15425 -0.23427
 H539 H 0.87249 0.15458 -0.21129
 H540 H 0.89810 0.12514 -0.17649
 H541 H 0.83887 0.15859 -0.11352
 H542 H 0.81311 0.18811 -0.14847
 H543 H 0.88328 0.15108 -0.08801
 H544 H 0.91006 0.11987 -0.05508
 H545 H 0.91770 0.05277 -0.11716
 H546 H 0.89066 0.08372 -0.14983
 C547 C 0.83026 0.68901 0.29569
 C548 C 0.83170 0.67865 0.26808
 C549 C 0.81583 0.69279 0.24714
 C550 C 0.79798 0.71754 0.25329
 C551 C 0.79743 0.72868 0.28057
 C552 C 0.81340 0.71454 0.30158
 C553 C 0.84502 0.67225 0.31830
 C554 C 0.83202 0.66979 0.34429
 C555 C 0.84486 0.65202 0.36467
 C556 C 0.87082 0.63617 0.35939
 C557 C 0.88417 0.63920 0.33376
 C558 C 0.87148 0.65711 0.31350
 C559 C 0.88388 0.61611 0.38025
 C560 C 0.89569 0.58896 0.37181
 C561 C 0.90939 0.57047 0.39101
 C562 C 0.91180 0.57882 0.41902
 C563 C 0.89922 0.60563 0.42768
 C564 C 0.88526 0.62407 0.40848
 H565 H 0.84419 0.65893 0.26280
 H566 H 0.81689 0.68387 0.22623
 H567 H 0.78369 0.74756 0.28603
 H568 H 0.81214 0.72331 0.32254
 H569 H 0.81146 0.68080 0.34854
 H570 H 0.83407 0.64995 0.38420
 H571 H 0.90447 0.62767 0.32938
 H572 H 0.88233 0.65895 0.29396
 H573 H 0.89450 0.58211 0.35026
 H574 H 0.91881 0.54992 0.38373
 H575 H 0.90077 0.61261 0.44915
 H576 H 0.87638 0.64490 0.41551
 C577 C 0.32838 0.18862 0.30673
 C578 C 0.31553 0.21614 0.31254
 C579 C 0.29664 0.22995 0.29363
 C580 C 0.29033 0.21664 0.26841
 C581 C 0.30365 0.18941 0.26235
 C582 C 0.32228 0.17553 0.28130
 C583 C 0.34733 0.17311 0.32733
 C584 C 0.37048 0.15448 0.31835
 C585 C 0.38687 0.13806 0.33743
 C586 C 0.38084 0.14009 0.36610
 C587 C 0.35834 0.15953 0.37520
 C588 C 0.34172 0.17573 0.35606
 C589 C 0.39708 0.12096 0.38608
 C590 C 0.38363 0.10978 0.40881
 C591 C 0.39830 0.08998 0.42622
 C592 C 0.42662 0.08061 0.42105
 C593 C 0.44035 0.09231 0.39893
 C594 C 0.42581 0.11242 0.38177
 H595 H 0.31997 0.22700 0.33176
 H596 H 0.28649 0.25074 0.29919
 H597 H 0.29961 0.17867 0.24294
 H598 H 0.33139 0.15421 0.27624
 H599 H 0.37578 0.15228 0.29646
 H600 H 0.40377 0.12311 0.32952
 H601 H 0.35334 0.16204 0.39714
 H602 H 0.32394 0.18966 0.36375
 H603 H 0.36147 0.11547 0.41259
 H604 H 0.38719 0.08121 0.44308
 H605 H 0.46228 0.08565 0.39468
 H606 H 0.43705 0.12103 0.36492
 C607 C 0.32746 0.68082 -0.20270
 C608 C 0.32500 0.67171 -0.23050
 C609 C 0.30702 0.68728 -0.24887
 C610 C 0.29127 0.71244 -0.23995
 C611 C 0.29471 0.72241 -0.21264
 C612 C 0.31257 0.70668 -0.19413
 C613 C 0.34439 0.66270 -0.18250
 C614 C 0.36025 0.67471 -0.16171
 C615 C 0.37547 0.65752 -0.14232
 C616 C 0.37522 0.62793 -0.14331
 C617 C 0.35952 0.61593 -0.16423
 C618 C 0.34423 0.63309 -0.18352
 C619 C 0.39104 0.60967 -0.12246
 C620 C 0.37963 0.58612 -0.11145
 C621 C 0.39429 0.56930 -0.09141
 C622 C 0.42056 0.57577 -0.08188
 C623 C 0.43214 0.59906 -0.09307
 C624 C 0.41758 0.61578 -0.11319
 H625 H 0.33670 0.65229 -0.23798
 H626 H 0.30505 0.67940 -0.26999
 H627 H 0.28257 0.74160 -0.20519
 H628 H 0.31378 0.71418 -0.17280
 H629 H 0.36100 0.69740 -0.16048
 H630 H 0.38708 0.66748 -0.12627
 H631 H 0.35913 0.59321 -0.16579
 H632 H 0.33189 0.62316 -0.19897
 H633 H 0.35908 0.58103 -0.11786
 H634 H 0.38483 0.55154 -0.08304
 H635 H 0.45245 0.60445 -0.08621
 H636 H 0.42718 0.63343 -0.12159
 C637 C 1.19832 -0.18026 -0.18419
 C638 C 1.18713 -0.20588 -0.18996
 C639 C 1.19847 -0.22419 -0.21099
 C640 C 1.22110 -0.21725 -0.22714
 C641 C 1.23289 -0.19208 -0.22095
 C642 C 1.22162 -0.17376 -0.19969
 C643 C 1.18459 -0.15999 -0.16309
 C644 C 1.18179 -0.13065 -0.16772
 C645 C 1.16602 -0.11194 -0.14951
 C646 C 1.15238 -0.12212 -0.12638
 C647 C 1.15624 -0.15135 -0.12114
 C648 C 1.17229 -0.16997 -0.13911
 C649 C 1.13270 -0.10281 -0.10893
 C650 C 1.12936 -0.10779 -0.08034
 C651 C 1.10864 -0.09159 -0.06477
 C652 C 1.09111 -0.06976 -0.07729
 C653 C 1.09523 -0.06385 -0.10545
 C654 C 1.11563 -0.08030 -0.12114
 H655 H 1.16898 -0.21150 -0.17881
 H656 H 1.18927 -0.24372 -0.21470
 H657 H 1.25026 -0.18607 -0.23308
 H658 H 1.23100 -0.15439 -0.19557
 H659 H 1.19081 -0.12217 -0.18602
 H660 H 1.16404 -0.08952 -0.15392
 H661 H 1.14593 -0.16012 -0.10375
 H662 H 1.17449 -0.19235 -0.13452
 H663 H 1.14249 -0.12448 -0.07004
 H664 H 1.10609 -0.09640 -0.04300
 H665 H 1.08194 -0.04719 -0.11566
 H666 H 1.11717 -0.07605 -0.14313
 C667 C 1.19779 0.32204 0.32135
 C668 C 1.18646 0.29688 0.31402
 C669 C 1.19800 0.27955 0.29237
 C670 C 1.22097 0.28705 0.27705
 C671 C 1.23290 0.31175 0.28478
 C672 C 1.22140 0.32911 0.30668
 C673 C 1.18385 0.34126 0.34318
 C674 C 1.18112 0.37081 0.33997
 C675 C 1.16482 0.38859 0.35858
 C676 C 1.15058 0.37725 0.38069
 C677 C 1.15453 0.34781 0.38468
 C678 C 1.17111 0.33010 0.36632
 C679 C 1.13004 0.39559 0.39814
 C680 C 1.12564 0.38939 0.42629
 C681 C 1.10414 0.40473 0.44163
 C682 C 1.08685 0.42686 0.42929
 C683 C 1.09196 0.43391 0.40161
 C684 C 1.11315 0.41835 0.38616
 H685 H 1.16809 0.29085 0.32449
 H686 H 1.18873 0.26026 0.28761
 H687 H 1.25062 0.31809 0.27348
 H688 H 1.23089 0.34815 0.31199
 H689 H 1.19053 0.38018 0.32237
 H690 H 1.16282 0.41120 0.35519
 H691 H 1.14382 0.33817 0.40127
 H692 H 1.17328 0.30751 0.36984
 H693 H 1.13856 0.37242 0.43642
 H694 H 1.10081 0.39905 0.46304
 H695 H 1.07891 0.45083 0.39153
 H696 H 1.11547 0.42351 0.36447
 C697 C 0.68970 -0.19424 0.30519
 C698 C 0.68694 -0.22288 0.29943
 C699 C 0.70255 -0.23736 0.27821
 C700 C 0.72141 -0.22362 0.26232
 C701 C 0.72548 -0.19551 0.26900
 C702 C 0.70965 -0.18086 0.29022
 C703 C 0.67074 -0.17825 0.32575
 C704 C 0.68064 -0.15826 0.34410
 C705 C 0.66242 -0.14313 0.36311
 C706 C 0.63389 -0.14759 0.36406
 C707 C 0.62408 -0.16766 0.34578
 C708 C 0.64224 -0.18275 0.32684
 C709 C 0.61425 -0.13092 0.38355
 C710 C 0.58714 -0.12050 0.37473
 C711 C 0.56897 -0.10390 0.39263
 C712 C 0.57753 -0.09733 0.41971
 C713 C 0.60436 -0.10829 0.42881
 C714 C 0.62255 -0.12490 0.41089
 H715 H 0.67237 -0.23402 0.31110
 H716 H 0.69958 -0.25930 0.27397
 H717 H 0.73994 -0.18453 0.25701
 H718 H 0.71219 -0.15877 0.29412
 H719 H 0.70250 -0.15446 0.34388
 H720 H 0.67054 -0.12756 0.37672
 H721 H 0.60231 -0.17178 0.34617
 H722 H 0.63383 -0.19767 0.31271
 H723 H 0.58022 -0.12450 0.35370
 H724 H 0.54846 -0.09565 0.38502
 H725 H 0.61150 -0.10360 0.44961
 H726 H 0.64313 -0.13299 0.41842
 C727 C 0.68513 0.31165 -0.19492
 C728 C 0.67455 0.28713 -0.20505
 C729 C 0.68877 0.27039 -0.22568
 C730 C 0.71419 0.27756 -0.23703
 C731 C 0.72516 0.30188 -0.22618
 C732 C 0.71066 0.31881 -0.20556
 C733 C 0.66883 0.32992 -0.17396
 C734 C 0.66516 0.35950 -0.17674
 C735 C 0.64771 0.37640 -0.15837
 C736 C 0.63360 0.36407 -0.13680
 C737 C 0.63792 0.33456 -0.13360
 C738 C 0.65532 0.31769 -0.15194
 C739 C 0.61434 0.38180 -0.11776
 C740 C 0.58888 0.37244 -0.10922
 C741 C 0.57113 0.38873 -0.09065
 C742 C 0.57849 0.41468 -0.08023
 C743 C 0.60366 0.42429 -0.08914
 C744 C 0.62139 0.40804 -0.10771
 H745 H 0.65486 0.28107 -0.19738
 H746 H 0.67982 0.25139 -0.23204
 H747 H 0.74415 0.30895 -0.23436
 H748 H 0.71937 0.33760 -0.19802
 H749 H 0.67501 0.36947 -0.19371
 H750 H 0.64463 0.39906 -0.16152
 H751 H 0.62788 0.32448 -0.11682
 H752 H 0.65813 0.29500 -0.14898
 H753 H 0.58264 0.35253 -0.11697
 H754 H 0.55181 0.38085 -0.08421
 H755 H 0.60991 0.44421 -0.08142
 H756 H 0.64095 0.41571 -0.11368
 C757 C 1.18373 0.18114 -0.15932
 C758 C 1.17132 0.20705 -0.16969
 C759 C 1.18658 0.22368 -0.18637
 C760 C 1.21452 0.21448 -0.19394
 C761 C 1.22736 0.18929 -0.18219
 C762 C 1.21210 0.17270 -0.16536
 C763 C 1.16698 0.16294 -0.14258
 C764 C 1.17041 0.13333 -0.14619
 C765 C 1.15357 0.11635 -0.13156
 C766 C 1.13284 0.12859 -0.11306
 C767 C 1.12978 0.15817 -0.10912
 C768 C 1.14670 0.17510 -0.12360
 C769 C 1.11387 0.11082 -0.09852
 C770 C 1.10493 0.11757 -0.07111
 C771 C 1.08557 0.10216 -0.05812
 C772 C 1.07492 0.07947 -0.07212
 C773 C 1.08446 0.07205 -0.09914
 C774 C 1.10366 0.08764 -0.11226
 H775 H 1.14956 0.21433 -0.16532
 H776 H 1.17627 0.24377 -0.19315
 H777 H 1.24926 0.18228 -0.18608
 H778 H 1.22258 0.15334 -0.15693
 H779 H 1.18565 0.12329 -0.16085
 H780 H 1.15675 0.09362 -0.13482
 H781 H 1.11381 0.16838 -0.09531
 H782 H 1.14378 0.19779 -0.11998
 H783 H 1.11280 0.13489 -0.05970
 H784 H 1.07878 0.10817 -0.03715
 H785 H 1.07653 0.05468 -0.11042
 H786 H 1.10981 0.08206 -0.13349
 C787 C 1.16894 0.68254 0.34215
 C788 C 1.15513 0.70385 0.32559
 C789 C 1.17035 0.72069 0.30907
 C790 C 1.19992 0.71654 0.30855
 C791 C 1.21362 0.69574 0.32595
 C792 C 1.19836 0.67884 0.34237
 C793 C 1.15261 0.66405 0.35881
 C794 C 1.16055 0.63470 0.35970
 C795 C 1.14451 0.61715 0.37456
 C796 C 1.12033 0.62864 0.38896
 C797 C 1.11261 0.65804 0.38830
 C798 C 1.12856 0.67554 0.37338
 C799 C 1.10281 0.61014 0.40423
 C800 C 1.09138 0.61877 0.43029
 C801 C 1.07339 0.60235 0.44394
 C802 C 1.06644 0.57693 0.43183
 C803 C 1.07847 0.56780 0.40617
 C804 C 1.09652 0.58426 0.39249
 H805 H 1.13242 0.70713 0.32496
 H806 H 1.15849 0.73668 0.29691
 H807 H 1.23632 0.69229 0.32650
 H808 H 1.20960 0.66292 0.35533
 H809 H 1.17885 0.62523 0.34843
 H810 H 1.15108 0.59460 0.37489
 H811 H 1.09390 0.66747 0.39893
 H812 H 1.12209 0.69811 0.37328
 H813 H 1.09623 0.63836 0.44007
 H814 H 1.06460 0.60980 0.46383
 H815 H 1.07346 0.54828 0.39640
 H816 H 1.10486 0.57719 0.37232
 C817 C 0.67255 0.17721 0.34362
 C818 C 0.68572 0.16680 0.31888
 C819 C 0.70339 0.18293 0.30446
 C820 C 0.70921 0.20956 0.31484
 C821 C 0.69548 0.22020 0.33934
 C822 C 0.67759 0.20412 0.35367
 C823 C 0.65342 0.16011 0.35863
 C824 C 0.65335 0.15950 0.38788
 C825 C 0.63630 0.14234 0.40192
 C826 C 0.61907 0.12527 0.38702
 C827 C 0.61866 0.12641 0.35779
 C828 C 0.63554 0.14372 0.34378
 C829 C 0.60265 0.10532 0.40177
 C830 C 0.57587 0.10013 0.39227
 C831 C 0.56130 0.08000 0.40522
 C832 C 0.57315 0.06486 0.42800
 C833 C 0.59956 0.07049 0.43791
 C834 C 0.61421 0.09040 0.42487
 H835 H 0.68234 0.14613 0.31056
 H836 H 0.71200 0.17461 0.28483
 H837 H 0.69785 0.24128 0.34714
 H838 H 0.66711 0.21310 0.37223
 H839 H 0.66700 0.17174 0.39994
 H840 H 0.63678 0.14228 0.42446
 H841 H 0.60586 0.11333 0.34566
 H842 H 0.63468 0.14412 0.32125
 H843 H 0.56620 0.11159 0.37480
 H844 H 0.54084 0.07619 0.39732
 H845 H 0.60922 0.05907 0.45543
 H846 H 0.63496 0.09351 0.43243
 C847 C 0.67799 0.67815 -0.15438
 C848 C 0.69046 0.69930 -0.13977
 C849 C 0.70747 0.71675 -0.15357
 C850 C 0.71306 0.71294 -0.18241
 C851 C 0.70012 0.69156 -0.19675
 C852 C 0.68297 0.67447 -0.18297
 C853 C 0.65948 0.66008 -0.14006
 C854 C 0.63365 0.65507 -0.15195
 C855 C 0.61643 0.63743 -0.13886
 C856 C 0.62488 0.62424 -0.11380
 C857 C 0.65067 0.62932 -0.10185
 C858 C 0.66776 0.64724 -0.11478
 C859 C 0.60679 0.60536 -0.10003
 C860 C 0.61835 0.57914 -0.08969
 C861 C 0.60150 0.56180 -0.07566
 C862 C 0.57287 0.57055 -0.07145
 C863 C 0.56116 0.59647 -0.08234
 C864 C 0.57796 0.61367 -0.09664
 H865 H 0.68642 0.70283 -0.11773
 H866 H 0.71536 0.73345 -0.14141
 H867 H 0.70312 0.68826 -0.21898
 H868 H 0.67365 0.65823 -0.19471
 H869 H 0.62673 0.66495 -0.17133
 H870 H 0.59669 0.63374 -0.14851
 H871 H 0.65748 0.61962 -0.08236
 H872 H 0.68766 0.65067 -0.10532
 H873 H 0.64046 0.57213 -0.09238
 H874 H 0.61105 0.54191 -0.06748
 H875 H 0.53914 0.60368 -0.07937
 H876 H 0.56861 0.63386 -0.10433
 C877 C 0.81360 -0.17490 -0.16473
 C878 C 0.78996 -0.18229 -0.15052
 C879 C 0.77234 -0.20044 -0.16273
 C880 C 0.77738 -0.21162 -0.18988
 C881 C 0.80019 -0.20282 -0.20477
 C882 C 0.81820 -0.18496 -0.19224
 C883 C 0.83362 -0.15755 -0.15035
 C884 C 0.84751 -0.13764 -0.16483
 C885 C 0.86618 -0.12149 -0.15095
 C886 C 0.87131 -0.12474 -0.12222
 C887 C 0.85732 -0.14460 -0.10782
 C888 C 0.83898 -0.16091 -0.12170
 C889 C 0.89114 -0.10769 -0.10718
 C890 C 0.90780 -0.11959 -0.08525
 C891 C 0.92581 -0.10353 -0.07052
 C892 C 0.92797 -0.07530 -0.07759
 C893 C 0.91170 -0.06338 -0.09968
 C894 C 0.89336 -0.07934 -0.11422
 H895 H 0.78498 -0.17404 -0.12976
 H896 H 0.75432 -0.20512 -0.15081
 H897 H 0.80542 -0.21086 -0.22547
 H898 H 0.83632 -0.17989 -0.20380
 H899 H 0.84375 -0.13428 -0.18683
 H900 H 0.87681 -0.10667 -0.16283
 H901 H 0.86030 -0.14744 -0.08565
 H902 H 0.82918 -0.17639 -0.10989
 H903 H 0.90721 -0.14149 -0.07959
 H904 H 0.93832 -0.11339 -0.05378
 H905 H 0.91291 -0.04161 -0.10552
 H906 H 0.88059 -0.06930 -0.13067
 C907 C 0.80749 0.32450 0.33683
 C908 C 0.81648 0.30942 0.31241
 C909 C 0.79911 0.29154 0.29906
 C910 C 0.77255 0.28825 0.30999
 C911 C 0.76317 0.30407 0.33376
 C912 C 0.78038 0.32206 0.34696
 C913 C 0.82660 0.34179 0.35237
 C914 C 0.82699 0.34192 0.38167
 C915 C 0.84516 0.35773 0.39646
 C916 C 0.86355 0.37370 0.38236
 C917 C 0.86315 0.37363 0.35305
 C918 C 0.84489 0.35787 0.33823
 C919 C 0.88317 0.39015 0.39819
 C920 C 0.88877 0.41702 0.38924
 C921 C 0.90743 0.43233 0.40399
 C922 C 0.92083 0.42115 0.42808
 C923 C 0.91511 0.39444 0.43722
 C924 C 0.89654 0.37907 0.42240
 H925 H 0.83733 0.31059 0.30421
 H926 H 0.80697 0.27936 0.28093
 H927 H 0.74255 0.30231 0.34232
 H928 H 0.77251 0.33390 0.36528
 H929 H 0.81352 0.32944 0.39324
 H930 H 0.84466 0.35756 0.41900
 H931 H 0.87727 0.38545 0.34153
 H932 H 0.84496 0.35842 0.31569
 H933 H 0.87851 0.42637 0.37095
 H934 H 0.91136 0.45294 0.39653
 H935 H 0.92524 0.38524 0.45564
 H936 H 0.89303 0.35827 0.42966
 C937 C 0.31109 -0.18284 0.33109
 C938 C 0.31866 -0.19716 0.30592
 C939 C 0.29989 -0.21342 0.29235
 C940 C 0.27324 -0.21566 0.30370
 C941 C 0.26535 -0.20031 0.32823
 C942 C 0.28405 -0.18420 0.34178
 C943 C 0.33130 -0.16698 0.34669
 C944 C 0.33327 -0.16906 0.37581
 C945 C 0.35130 -0.15335 0.39088
 C946 C 0.36778 -0.13509 0.37722
 C947 C 0.36631 -0.13349 0.34799
 C948 C 0.34830 -0.14933 0.33287
 C949 C 0.38577 -0.11724 0.39355
 C950 C 0.41249 -0.11243 0.38389
 C951 C 0.42901 -0.09511 0.39910
 C952 C 0.41914 -0.08224 0.42426
 C953 C 0.39261 -0.08728 0.43409
 C954 C 0.37610 -0.10454 0.41890
 H955 H 0.33940 -0.19652 0.29722
 H956 H 0.30665 -0.22497 0.27356
 H957 H 0.24467 -0.20080 0.33711
 H958 H 0.27733 -0.17279 0.36072
 H959 H 0.32088 -0.18295 0.38698
 H960 H 0.35237 -0.15556 0.41328
 H961 H 0.37850 -0.11939 0.33686
 H962 H 0.34708 -0.14717 0.31047
 H963 H 0.42070 -0.12219 0.36464
 H964 H 0.44942 -0.09163 0.39105
 H965 H 0.38440 -0.07755 0.45336
 H966 H 0.35546 -0.10743 0.42674
 C967 C 0.31815 0.32388 -0.17852
 C968 C 0.29682 0.31372 -0.16287
 C969 C 0.27928 0.29526 -0.17475
 C970 C 0.28246 0.28608 -0.20282
 C971 C 0.30386 0.29668 -0.21853
 C972 C 0.32149 0.31516 -0.20648
 C973 C 0.33691 0.34318 -0.16533
 C974 C 0.36599 0.33959 -0.17024
 C975 C 0.38377 0.35644 -0.15603
 C976 C 0.37282 0.37729 -0.13669
 C977 C 0.34364 0.38136 -0.13245
 C978 C 0.32593 0.36458 -0.14662
 C979 C 0.39162 0.39387 -0.11991
 C980 C 0.38351 0.42250 -0.11312
 C981 C 0.39965 0.43726 -0.09491
 C982 C 0.42435 0.42380 -0.08319
 C983 C 0.43320 0.39560 -0.09089
 C984 C 0.41696 0.38076 -0.10902
 H985 H 0.29379 0.31984 -0.14117
 H986 H 0.26278 0.28903 -0.16168
 H987 H 0.30804 0.29026 -0.23988
 H988 H 0.33770 0.32275 -0.21914
 H989 H 0.37511 0.32317 -0.18440
 H990 H 0.40611 0.35298 -0.16001
 H991 H 0.33449 0.39696 -0.11748
 H992 H 0.30358 0.36815 -0.14268
 H993 H 0.36441 0.43340 -0.12157
 H994 H 0.39245 0.45908 -0.08955
 H995 H 0.45216 0.38470 -0.08217
 H996 H 0.42369 0.35867 -0.11357
 C997 C 1.18865 -0.17770 0.18627
 C998 C 1.21283 -0.17219 0.20118
 C999 C 1.22329 -0.19009 0.22262
 C1000 C 1.20974 -0.21381 0.22961
 C1001 C 1.18593 -0.21956 0.21433
 C1002 C 1.17544 -0.20169 0.19311
 C1003 C 1.17636 -0.15821 0.16437
 C1004 C 1.16353 -0.16897 0.14071
 C1005 C 1.14893 -0.15075 0.12183
 C1006 C 1.14707 -0.12122 0.12584
 C1007 C 1.16122 -0.11041 0.14867
 C1008 C 1.17560 -0.12868 0.16777
 C1009 C 1.12878 -0.10207 0.10745
 C1010 C 1.11277 -0.07797 0.11866
 C1011 C 1.09339 -0.06158 0.10217
 C1012 C 1.08930 -0.06910 0.07419
 C1013 C 1.10589 -0.09252 0.06263
 C1014 C 1.12556 -0.10872 0.07902
 H1015 H 1.22367 -0.15404 0.19629
 H1016 H 1.24160 -0.18502 0.23408
 H1017 H 1.17531 -0.23799 0.21867
 H1018 H 1.15655 -0.20642 0.18244
 H1019 H 1.16420 -0.19159 0.13709
 H1020 H 1.13814 -0.15996 0.10471
 H1021 H 1.16073 -0.08778 0.15215
 H1022 H 1.18514 -0.11962 0.18578
 H1023 H 1.11428 -0.07237 0.14050
 H1024 H 1.08084 -0.04366 0.11167
 H1025 H 1.10335 -0.09861 0.04102
 H1026 H 1.13793 -0.12674 0.06949
 C1027 C 1.19089 0.32233 0.68702
 C1028 C 1.21505 0.32914 0.70120
 C1029 C 1.22751 0.31125 0.72172
 C1030 C 1.21610 0.28619 0.72846
 C1031 C 1.19224 0.27921 0.71397
 C1032 C 1.17973 0.29711 0.69367
 C1033 C 1.17667 0.34167 0.66601
 C1034 C 1.16383 0.33063 0.64251
 C1035 C 1.14789 0.34852 0.62431
 C1036 C 1.14465 0.37801 0.62887
 C1037 C 1.15864 0.38918 0.65161
 C1038 C 1.17436 0.37122 0.67003
 C1039 C 1.12529 0.39667 0.61105
 C1040 C 1.10841 0.41991 0.62283
 C1041 C 1.08821 0.43576 0.60680
 C1042 C 1.08416 0.42851 0.57875
 C1043 C 1.10156 0.40596 0.56665
 C1044 C 1.12205 0.39034 0.58256
 H1045 H 1.22436 0.34826 0.69642
 H1046 H 1.24573 0.31735 0.73266
 H1047 H 1.18321 0.25979 0.71816
 H1048 H 1.16091 0.29136 0.68356
 H1049 H 1.16565 0.30802 0.63843
 H1050 H 1.13723 0.33905 0.60725
 H1051 H 1.15706 0.41181 0.65550
 H1052 H 1.18384 0.38047 0.68797
 H1053 H 1.10994 0.42520 0.64475
 H1054 H 1.07502 0.45301 0.61669
 H1055 H 1.09906 0.40013 0.54496
 H1056 H 1.13507 0.37302 0.57262
 C1057 C 0.68203 -0.18762 0.70041
 C1058 C 0.70784 -0.17980 0.71015
 C1059 C 0.72306 -0.19572 0.73062
 C1060 C 0.71251 -0.21956 0.74221
 C1061 C 0.68710 -0.22767 0.73152
 C1062 C 0.67233 -0.21217 0.71087
 C1063 C 0.66457 -0.17016 0.68004
 C1064 C 0.63516 -0.16725 0.68246
 C1065 C 0.61834 -0.15192 0.66303
 C1066 C 0.63039 -0.13852 0.64088
 C1067 C 0.65983 -0.14104 0.63858
 C1068 C 0.67675 -0.15675 0.65793
 C1069 C 0.61210 -0.12178 0.62061
 C1070 C 0.61912 -0.12160 0.59216
 C1071 C 0.60168 -0.10581 0.57332
 C1072 C 0.57678 -0.09014 0.58252
 C1073 C 0.56962 -0.09056 0.61081
 C1074 C 0.58715 -0.10598 0.62965
 H1075 H 0.71583 -0.16085 0.70263
 H1076 H 0.74218 -0.18820 0.73830
 H1077 H 0.67874 -0.24667 0.73833
 H1078 H 0.65318 -0.21957 0.70304
 H1079 H 0.62501 -0.17677 0.69951
 H1080 H 0.59579 -0.15085 0.66529
 H1081 H 0.66984 -0.13068 0.62198
 H1082 H 0.69931 -0.15871 0.65535
 H1083 H 0.63793 -0.13385 0.58440
 H1084 H 0.60768 -0.10582 0.55158
 H1085 H 0.55073 -0.07841 0.61858
 H1086 H 0.58133 -0.10508 0.65145
 C1087 C 0.67830 0.31291 0.19711
 C1088 C 0.67105 0.28570 0.20274
 C1089 C 0.68570 0.26897 0.22270
 C1090 C 0.70786 0.27908 0.23767
 C1091 C 0.71565 0.30598 0.23166
 C1092 C 0.70094 0.32280 0.21160
 C1093 C 0.66160 0.33103 0.17681
 C1094 C 0.65438 0.36003 0.18244
 C1095 C 0.63723 0.37667 0.16409
 C1096 C 0.62685 0.36462 0.13980
 C1097 C 0.63441 0.33574 0.13396
 C1098 C 0.65165 0.31915 0.15222
 C1099 C 0.60837 0.38209 0.12046
 C1100 C 0.58471 0.37150 0.10858
 C1101 C 0.56787 0.38760 0.08957
 C1102 C 0.57449 0.41451 0.08196
 C1103 C 0.59783 0.42530 0.09420
 C1104 C 0.61456 0.40929 0.11331
 H1105 H 0.65357 0.27755 0.19219
 H1106 H 0.67954 0.24810 0.22648
 H1107 H 0.73255 0.31436 0.24297
 H1108 H 0.70720 0.34356 0.20749
 H1109 H 0.66136 0.36971 0.20141
 H1110 H 0.63154 0.39884 0.16921
 H1111 H 0.62718 0.32603 0.11511
 H1112 H 0.65724 0.29699 0.14704
 H1113 H 0.57925 0.35074 0.11402
 H1114 H 0.54996 0.37881 0.08048
 H1115 H 0.60342 0.44600 0.08871
 H1116 H 0.63277 0.41789 0.12196
 C1117 C 0.82116 0.19005 0.20152
 C1118 C 0.82084 0.17888 0.22847
 C1119 C 0.80323 0.19208 0.24899
 C1120 C 0.78536 0.21670 0.24307
 C1121 C 0.78638 0.22853 0.21650
 C1122 C 0.80408 0.21532 0.19591
 C1123 C 0.83822 0.17447 0.17920
 C1124 C 0.82750 0.17231 0.15203
 C1125 C 0.84254 0.15554 0.13173
 C1126 C 0.86848 0.14041 0.13826
 C1127 C 0.87960 0.14327 0.16511
 C1128 C 0.86471 0.16017 0.18531
 C1129 C 0.88367 0.12101 0.11754
 C1130 C 0.89540 0.09396 0.12558
 C1131 C 0.91088 0.07597 0.10667
 C1132 C 0.91517 0.08470 0.07934
 C1133 C 0.90278 0.11143 0.07098
 C1134 C 0.88703 0.12939 0.08990
 H1135 H 0.83347 0.15930 0.23347
 H1136 H 0.80322 0.18266 0.26939
 H1137 H 0.77266 0.24733 0.21120
 H1138 H 0.80410 0.22467 0.17548
 H1139 H 0.80701 0.18274 0.14672
 H1140 H 0.83344 0.15358 0.11122
 H1141 H 0.89983 0.13229 0.17053
 H1142 H 0.87386 0.16185 0.20582
 H1143 H 0.89270 0.08677 0.14661
 H1144 H 0.92007 0.05546 0.11370
 H1145 H 0.90577 0.11869 0.05003
 H1146 H 0.87823 0.15016 0.08319
 C1147 C 0.81525 0.69230 0.69978
 C1148 C 0.81945 0.71965 0.70908
 C1149 C 0.80299 0.73279 0.73071
 C1150 C 0.78259 0.71841 0.74408
 C1151 C 0.77900 0.69071 0.73458
 C1152 C 0.79488 0.67805 0.71264
 C1153 C 0.83228 0.67781 0.67719
 C1154 C 0.81906 0.66697 0.65387
 C1155 C 0.83462 0.64980 0.63431
 C1156 C 0.86354 0.64273 0.63811
 C1157 C 0.87691 0.65428 0.66100
 C1158 C 0.86141 0.67194 0.68028
 C1159 C 0.87941 0.62210 0.61911
 C1160 C 0.89584 0.59852 0.62998
 C1161 C 0.91074 0.57879 0.61220
 C1162 C 0.90990 0.58258 0.58324
 C1163 C 0.89327 0.60604 0.57234
 C1164 C 0.87789 0.62549 0.59013
 H1165 H 0.83532 0.73087 0.69945
 H1166 H 0.80716 0.75374 0.73740
 H1167 H 0.76303 0.67891 0.74308
 H1168 H 0.79137 0.65688 0.70578
 H1169 H 0.79655 0.67121 0.65124
 H1170 H 0.82389 0.64102 0.61688
 H1171 H 0.89926 0.64921 0.66419
 H1172 H 0.87191 0.67990 0.69829
 H1173 H 0.89700 0.59531 0.65226
 H1174 H 0.92351 0.56098 0.62116
 H1175 H 0.89232 0.60944 0.55008
 H1176 H 0.86529 0.64351 0.58133
 C1177 C 0.32062 0.19178 0.68502
 C1178 C 0.32678 0.21688 0.69852
 C1179 C 0.30952 0.22911 0.71995
 C1180 C 0.28571 0.21659 0.72829
 C1181 C 0.27943 0.19170 0.71454
 C1182 C 0.29673 0.17938 0.69337
 C1183 C 0.33931 0.17791 0.66293
 C1184 C 0.32802 0.16370 0.64036
 C1185 C 0.34556 0.14799 0.62127
 C1186 C 0.37489 0.14637 0.62400
 C1187 C 0.38619 0.16185 0.64570
 C1188 C 0.36863 0.17730 0.66501
 C1189 C 0.39341 0.12694 0.60561
 C1190 C 0.41754 0.11144 0.61654
 C1191 C 0.43347 0.09109 0.60025
 C1192 C 0.42548 0.08546 0.57276
 C1193 C 0.40197 0.10149 0.56142
 C1194 C 0.38619 0.12215 0.57762
 H1195 H 0.34486 0.22715 0.69246
 H1196 H 0.31512 0.24813 0.73020
 H1197 H 0.26094 0.18174 0.71987
 H1198 H 0.29155 0.15981 0.68384
 H1199 H 0.30554 0.16423 0.63772
 H1200 H 0.33602 0.13620 0.60504
 H1201 H 0.40867 0.16156 0.64814
 H1202 H 0.37809 0.18786 0.68217
 H1203 H 0.42353 0.11413 0.63808
 H1204 H 0.45147 0.07901 0.60958
 H1205 H 0.39551 0.09774 0.54018
 H1206 H 0.36808 0.13406 0.56833
 C1207 C 0.31032 0.68122 0.19560
 C1208 C 0.31852 0.70542 0.20924
 C1209 C 0.30064 0.72063 0.22853
 C1210 C 0.27437 0.71178 0.23470
 C1211 C 0.26607 0.68785 0.22069
 C1212 C 0.28384 0.67273 0.20148
 C1213 C 0.32927 0.66443 0.17561
 C1214 C 0.31837 0.65292 0.15129
 C1215 C 0.33573 0.63557 0.13332
 C1216 C 0.36444 0.62942 0.13917
 C1217 C 0.37554 0.64145 0.16311
 C1218 C 0.35812 0.65876 0.18118
 C1219 C 0.38261 0.61047 0.12026
 C1220 C 0.40937 0.61725 0.11279
 C1221 C 0.42590 0.60004 0.09396
 C1222 C 0.41605 0.57565 0.08234
 C1223 C 0.38961 0.56846 0.09034
 C1224 C 0.37303 0.58573 0.10907
 H1225 H 0.33870 0.71265 0.20490
 H1226 H 0.30764 0.73893 0.23894
 H1227 H 0.24570 0.68079 0.22442
 H1228 H 0.27697 0.65404 0.19158
 H1229 H 0.29635 0.65735 0.14612
 H1230 H 0.32671 0.62710 0.11471
 H1231 H 0.39756 0.63690 0.16823
 H1232 H 0.36708 0.66704 0.19991
 H1233 H 0.41720 0.63627 0.12093
 H1234 H 0.44621 0.60608 0.08815
 H1235 H 0.38154 0.54974 0.08178
 H1236 H 0.35267 0.57976 0.11480
   
