data_POSCAR
  _audit_creation_date              2014-09-24
  _audit_creation_method            'ToBaCCo'
  _symmetry_space_group_name_H-M    'P1'
  _symmetry_Int_Tables_number       1
  _symmetry_cell_setting            triclinic
  loop_
  _symmetry_equiv_pos_as_xyz
 x,y,z
_cell_length_a 56.1147
_cell_length_b 37.7862
_cell_length_c 39.4120
_cell_angle_alpha 89.941200
_cell_angle_beta 89.961300
_cell_angle_gamma 89.984800
loop_
  _atom_site_label
  _atom_site_type_symbol
  _atom_site_fract_x
  _atom_site_fract_y
  _atom_site_fract_z
C1 C 0.00076 -0.00047 0.10956
 C2 C 0.00050 -0.00033 -0.11296
 C3 C -0.05472 -0.05855 0.05051
 C4 C -0.05477 0.05749 0.05050
 C5 C -0.05471 -0.05865 -0.05301
 C6 C 0.05543 -0.05524 -0.05662
 C7 C 0.05534 0.05453 -0.05661
 C8 C 0.05526 -0.05502 0.05332
 C9 C -0.05476 0.05778 -0.05292
 C10 C 0.05520 0.05427 0.05329
 O11 O -0.03282 -0.06614 -0.06052
 O12 O -0.06118 -0.03447 -0.03174
 O13 O -0.03288 0.06531 -0.06045
 O14 O -0.06121 0.03351 -0.03170
 O15 O 0.03333 0.06185 0.06071
 O16 O 0.06163 0.03200 0.03016
 O17 O 0.00027 0.02971 -0.09743
 O18 O 0.00032 -0.03042 -0.09745
 O19 O 0.00048 0.02967 0.09424
 O20 O 0.00050 -0.03063 0.09431
 O21 O 0.03347 -0.06276 -0.06382
 O22 O 0.06166 -0.03279 -0.03350
 O23 O -0.03281 -0.06596 0.05800
 O24 O -0.06120 -0.03450 0.02906
 O25 O 0.03341 -0.06270 0.06077
 O26 O 0.06165 -0.03275 0.03016
 O27 O 0.03338 0.06202 -0.06382
 O28 O 0.06161 0.03206 -0.03350
 O29 O 0.00135 0.09870 0.04956
 O30 O 0.00113 0.09859 -0.05365
 O31 O 0.00126 -0.09942 -0.05356
 O32 O 0.00148 -0.09965 0.04971
 O33 O -0.02032 -0.04705 -0.00151
 O34 O -0.02038 0.04611 -0.00154
 O35 O 0.02055 -0.04673 -0.00159
 O36 O -0.02150 -0.00049 0.04371
 O37 O -0.06124 0.03344 0.02908
 O38 O -0.03287 0.06493 0.05793
 O39 O 0.02207 -0.00045 0.04381
 O40 O 0.02209 -0.00039 -0.04716
 O41 O 0.02050 0.04589 -0.00163
 O42 O -0.02156 -0.00043 -0.04672
 Zr43 Zr 0.00020 0.04339 0.04248
 Zr44 Zr 0.00025 -0.04424 -0.04566
 Zr45 Zr -0.04063 -0.00049 -0.00141
 Zr46 Zr 0.00025 -0.04434 0.04253
 Zr47 Zr 0.00019 0.04340 -0.04566
 Zr48 Zr 0.04101 -0.00040 -0.00168
 H49 H 0.03020 -0.06866 -0.00159
 H50 H -0.03214 -0.00052 0.06375
 H51 H 0.03013 0.06784 -0.00163
 H52 H -0.03224 -0.00042 -0.06669
 H53 H -0.00354 0.10907 0.02759
 H54 H 0.00103 0.10924 -0.03074
 H55 H -0.00333 -0.11002 0.02772
 H56 H 0.00091 -0.11008 -0.03065
 C57 C 0.25021 0.24965 0.13800
 C58 C 0.25009 0.24947 0.36053
 C59 C 0.19473 0.30798 0.19768
 C60 C 0.19479 0.19158 0.19780
 C61 C 0.19463 0.30773 0.30123
 C62 C 0.30464 0.30458 0.30393
 C63 C 0.30453 0.19438 0.30399
 C64 C 0.30466 0.30465 0.19490
 C65 C 0.19458 0.19171 0.30121
 C66 C 0.30470 0.19428 0.19492
 O67 O 0.21654 0.31509 0.30872
 O68 O 0.18814 0.28371 0.27980
 O69 O 0.21646 0.18418 0.30870
 O70 O 0.18813 0.21580 0.27982
 O71 O 0.28282 0.18681 0.18741
 O72 O 0.31108 0.21689 0.21774
 O73 O 0.24980 0.21936 0.34523
 O74 O 0.24985 0.27963 0.34524
 O75 O 0.24995 0.21958 0.15352
 O76 O 0.24991 0.27971 0.15350
 O77 O 0.28276 0.31212 0.31143
 O78 O 0.31103 0.28201 0.28106
 O79 O 0.21664 0.31537 0.19023
 O80 O 0.18820 0.28380 0.21896
 O81 O 0.28280 0.31222 0.18740
 O82 O 0.31105 0.28202 0.21773
 O83 O 0.28265 0.18689 0.31149
 O84 O 0.31097 0.21692 0.28109
 O85 O 0.25050 0.15055 0.19742
 O86 O 0.25057 0.15044 0.30081
 O87 O 0.25071 0.34867 0.30084
 O88 O 0.25062 0.34860 0.19731
 O89 O 0.22905 0.29622 0.24935
 O90 O 0.22900 0.20309 0.24936
 O91 O 0.26989 0.29580 0.24936
 O92 O 0.22786 0.24963 0.20410
 O93 O 0.18814 0.21573 0.21892
 O94 O 0.21659 0.18389 0.19022
 O95 O 0.27154 0.24955 0.20382
 O96 O 0.27146 0.24952 0.29487
 O97 O 0.26985 0.20325 0.24938
 O98 O 0.22782 0.24961 0.29456
 Zr99 Zr 0.24963 0.20575 0.20527
 Zr100 Zr 0.24960 0.29340 0.29345
 Zr101 Zr 0.20871 0.24970 0.24934
 Zr102 Zr 0.24964 0.29340 0.20526
 Zr103 Zr 0.24954 0.20573 0.29345
 Zr104 Zr 0.29041 0.24949 0.24937
 H105 H 0.27948 0.31778 0.24937
 H106 H 0.21723 0.24969 0.18407
 H107 H 0.27942 0.18125 0.24943
 H108 H 0.21718 0.24963 0.31460
 H109 H 0.25024 0.13992 0.22035
 H110 H 0.24611 0.14002 0.27870
 H111 H 0.24950 0.35925 0.22016
 H112 H 0.24657 0.35916 0.27862
 C113 C 0.49984 -0.00128 0.11102
 C114 C 0.49968 -0.00155 -0.11085
 C115 C 0.55547 0.05647 0.05198
 C116 C 0.55568 -0.05911 0.05247
 C117 C 0.55562 0.05626 -0.05264
 C118 C 0.44543 0.05346 -0.05461
 C119 C 0.44553 -0.05671 -0.05434
 C120 C 0.44551 0.05382 0.05440
 C121 C 0.55569 -0.05909 -0.05240
 C122 C 0.44533 -0.05700 0.05495
 O123 O 0.53360 0.06360 -0.05985
 O124 O 0.56195 0.03245 -0.03076
 O125 O 0.53370 -0.06654 -0.05958
 O126 O 0.56198 -0.03525 -0.03059
 O127 O 0.46733 -0.06431 0.06224
 O128 O 0.43906 -0.03427 0.03203
 O129 O 0.50005 -0.03170 -0.09557
 O130 O 0.50001 0.02859 -0.09564
 O131 O 0.50013 -0.03146 0.09587
 O132 O 0.50014 0.02882 0.09570
 O133 O 0.46731 0.06105 -0.06209
 O134 O 0.43904 0.03089 -0.03168
 O135 O 0.53355 0.06407 0.05930
 O136 O 0.56195 0.03250 0.03049
 O137 O 0.46730 0.06159 0.06193
 O138 O 0.43897 0.03109 0.03185
 O139 O 0.46742 -0.06422 -0.06184
 O140 O 0.43910 -0.03417 -0.03146
 O141 O 0.49987 -0.10049 0.05215
 O142 O 0.49960 -0.10073 -0.05080
 O143 O 0.49941 0.09768 -0.05119
 O144 O 0.49974 0.09775 0.05162
 O145 O 0.52113 0.04523 -0.00003
 O146 O 0.52119 -0.04808 0.00018
 O147 O 0.48015 0.04478 0.00002
 O148 O 0.52221 -0.00136 0.04520
 O149 O 0.56197 -0.03517 0.03071
 O150 O 0.53368 -0.06666 0.05963
 O151 O 0.47862 -0.00143 0.04566
 O152 O 0.47864 -0.00155 -0.04523
 O153 O 0.48023 -0.04781 0.00023
 O154 O 0.52221 -0.00148 -0.04508
 Zr155 Zr 0.50053 -0.04529 0.04423
 Zr156 Zr 0.50048 0.04237 -0.04399
 Zr157 Zr 0.54140 -0.00140 0.00001
 Zr158 Zr 0.50047 0.04251 0.04402
 Zr159 Zr 0.50055 -0.04539 -0.04382
 Zr160 Zr 0.45964 -0.00156 0.00023
 H161 H 0.47056 0.06676 -0.00008
 H162 H 0.53282 -0.00132 0.06524
 H163 H 0.47067 -0.06981 0.00027
 H164 H 0.53278 -0.00148 -0.06519
 H165 H 0.49990 -0.11110 0.02924
 H166 H 0.50494 -0.11100 -0.02900
 H167 H 0.49991 0.10826 0.02864
 H168 H 0.50488 0.10803 -0.02951
 C169 C 0.75093 0.24927 0.13940
 C170 C 0.75076 0.24891 0.36126
 C171 C 0.69523 0.30705 0.19818
 C172 C 0.69541 0.19132 0.19829
 C173 C 0.69516 0.30668 0.30256
 C174 C 0.80516 0.30376 0.30533
 C175 C 0.80535 0.19426 0.30556
 C176 C 0.80521 0.30406 0.19553
 C177 C 0.69526 0.19144 0.30255
 C178 C 0.80523 0.19430 0.19560
 O179 O 0.71705 0.31414 0.31005
 O180 O 0.68871 0.28291 0.28085
 O181 O 0.71715 0.18388 0.31000
 O182 O 0.68880 0.21524 0.28086
 O183 O 0.78345 0.18650 0.18807
 O184 O 0.81177 0.21666 0.21849
 O185 O 0.75051 0.21879 0.34600
 O186 O 0.75046 0.27909 0.34602
 O187 O 0.75065 0.21909 0.15460
 O188 O 0.75059 0.27937 0.15467
 O189 O 0.78327 0.31135 0.31269
 O190 O 0.81162 0.28147 0.28224
 O191 O 0.71715 0.31463 0.19089
 O192 O 0.68875 0.28303 0.21968
 O193 O 0.78333 0.31167 0.18820
 O194 O 0.81167 0.28163 0.21852
 O195 O 0.78338 0.18672 0.31271
 O196 O 0.81164 0.21666 0.28236
 O197 O 0.75106 0.14993 0.19869
 O198 O 0.75140 0.14979 0.30119
 O199 O 0.75129 0.34823 0.30126
 O200 O 0.75100 0.34824 0.19867
 O201 O 0.72953 0.29573 0.25032
 O202 O 0.72960 0.20246 0.25027
 O203 O 0.77054 0.29537 0.25034
 O204 O 0.72853 0.24909 0.20512
 O205 O 0.68876 0.21523 0.21965
 O206 O 0.71723 0.18357 0.19080
 O207 O 0.77209 0.24912 0.20491
 O208 O 0.77204 0.24903 0.29570
 O209 O 0.77060 0.20273 0.25030
 O210 O 0.72849 0.24901 0.29536
 Zr211 Zr 0.75027 0.20518 0.20626
 Zr212 Zr 0.75016 0.29290 0.29432
 Zr213 Zr 0.70930 0.24909 0.25024
 Zr214 Zr 0.75020 0.29299 0.20634
 Zr215 Zr 0.75023 0.20514 0.29428
 Zr216 Zr 0.79109 0.24906 0.25033
 H217 H 0.78015 0.31733 0.25040
 H218 H 0.71793 0.24915 0.18507
 H219 H 0.78025 0.18080 0.25040
 H220 H 0.71790 0.24900 0.31543
 H221 H 0.75180 0.13945 0.22166
 H222 H 0.74565 0.13954 0.27961
 H223 H 0.75143 0.35873 0.22163
 H224 H 0.74562 0.35854 0.27965
 C225 C 0.00007 0.50038 0.11059
 C226 C -0.00002 0.49994 -0.11193
 C227 C -0.05517 0.44194 0.05120
 C228 C -0.05542 0.55820 0.05124
 C229 C -0.05536 0.44205 -0.05235
 C230 C 0.05460 0.44560 -0.05550
 C231 C 0.05452 0.55495 -0.05551
 C232 C 0.05458 0.44551 0.05416
 C233 C -0.05544 0.55823 -0.05217
 C234 C 0.05456 0.55522 0.05424
 O235 O -0.03346 0.43463 -0.05984
 O236 O -0.06185 0.46609 -0.03093
 O237 O -0.03355 0.56575 -0.05964
 O238 O -0.06191 0.53403 -0.03088
 O239 O 0.03267 0.56273 0.06167
 O240 O 0.06100 0.53286 0.03119
 O241 O -0.00031 0.53003 -0.09646
 O242 O -0.00023 0.46989 -0.09635
 O243 O -0.00022 0.53049 0.09525
 O244 O -0.00017 0.47021 0.09538
 O245 O 0.03274 0.43790 -0.06285
 O246 O 0.06100 0.46792 -0.03244
 O247 O -0.03336 0.43434 0.05879
 O248 O -0.06185 0.46604 0.03002
 O249 O 0.03282 0.43766 0.06177
 O250 O 0.06111 0.46788 0.03124
 O251 O 0.03264 0.56253 -0.06290
 O252 O 0.06097 0.53266 -0.03242
 O253 O 0.00066 0.59936 0.05054
 O254 O 0.00044 0.59910 -0.05273
 O255 O 0.00086 0.40097 -0.05155
 O256 O 0.00064 0.40109 0.05148
 O257 O -0.02096 0.45353 -0.00041
 O258 O -0.02105 0.54667 -0.00059
 O259 O 0.01992 0.45392 -0.00048
 O260 O -0.02216 0.50014 0.04470
 O261 O -0.06189 0.53409 0.02990
 O262 O -0.03352 0.56563 0.05873
 O263 O 0.02145 0.50023 0.04495
 O264 O 0.02143 0.50014 -0.04600
 O265 O 0.01983 0.54651 -0.00064
 O266 O -0.02221 0.50007 -0.04572
 Zr267 Zr -0.00045 0.54405 0.04345
 Zr268 Zr -0.00041 0.45628 -0.04452
 Zr269 Zr -0.04132 0.50006 -0.00048
 Zr270 Zr -0.00036 0.45630 0.04365
 Zr271 Zr -0.00049 0.54391 -0.04469
 Zr272 Zr 0.04040 0.50026 -0.00054
 H273 H 0.02957 0.43199 -0.00052
 H274 H -0.03281 0.50012 0.06473
 H275 H 0.02942 0.56849 -0.00068
 H276 H -0.03285 0.50010 -0.06573
 H277 H -0.00400 0.60973 0.02847
 H278 H -0.00025 0.60978 -0.02986
 H279 H 0.00051 0.39052 0.02854
 H280 H -0.00420 0.39060 -0.02965
 C281 C 0.25065 0.75046 0.13867
 C282 C 0.25040 0.75078 0.36057
 C283 C 0.19531 0.80906 0.19792
 C284 C 0.19490 0.69278 0.19794
 C285 C 0.19495 0.80886 0.30144
 C286 C 0.30490 0.80540 0.30427
 C287 C 0.30471 0.69524 0.30435
 C288 C 0.30518 0.80550 0.19514
 C289 C 0.19471 0.69296 0.30170
 C290 C 0.30478 0.69498 0.19531
 O291 O 0.21686 0.81622 0.30890
 O292 O 0.18844 0.78486 0.28002
 O293 O 0.21660 0.68545 0.30919
 O294 O 0.18829 0.71699 0.28017
 O295 O 0.28289 0.68760 0.18785
 O296 O 0.31127 0.71760 0.21806
 O297 O 0.25005 0.72061 0.34539
 O298 O 0.25016 0.78089 0.34524
 O299 O 0.25024 0.72036 0.15398
 O300 O 0.25041 0.78063 0.15382
 O301 O 0.28303 0.81308 0.31164
 O302 O 0.31132 0.78281 0.28145
 O303 O 0.21714 0.81657 0.19032
 O304 O 0.18856 0.78499 0.21908
 O305 O 0.28340 0.81333 0.18749
 O306 O 0.31160 0.78285 0.21790
 O307 O 0.28280 0.68788 0.31184
 O308 O 0.31121 0.71774 0.28143
 O309 O 0.25052 0.65148 0.19799
 O310 O 0.25069 0.65152 0.30108
 O311 O 0.25108 0.84983 0.30057
 O312 O 0.25107 0.84971 0.19755
 O313 O 0.22939 0.79728 0.24944
 O314 O 0.22913 0.70411 0.24968
 O315 O 0.27032 0.79683 0.24953
 O316 O 0.22819 0.75075 0.20439
 O317 O 0.18830 0.71693 0.21909
 O318 O 0.21671 0.68502 0.19042
 O319 O 0.27183 0.75044 0.20411
 O320 O 0.27170 0.75056 0.29503
 O321 O 0.27006 0.70425 0.24971
 O322 O 0.22807 0.75078 0.29473
 Zr323 Zr 0.24979 0.70671 0.20567
 Zr324 Zr 0.24990 0.79452 0.29351
 Zr325 Zr 0.20894 0.75081 0.24955
 Zr326 Zr 0.25011 0.79451 0.20544
 Zr327 Zr 0.24972 0.70681 0.29371
 Zr328 Zr 0.29075 0.75042 0.24961
 H329 H 0.27996 0.81875 0.24956
 H330 H 0.21758 0.75078 0.18435
 H331 H 0.27958 0.68219 0.24981
 H332 H 0.21745 0.75085 0.31477
 H333 H 0.25050 0.64093 0.22095
 H334 H 0.24580 0.64110 0.27915
 H335 H 0.25121 0.86031 0.22047
 H336 H 0.24614 0.86021 0.27863
 C337 C 0.49904 0.50011 0.11098
 C338 C 0.49930 0.49944 -0.11090
 C339 C 0.55472 0.55771 0.05222
 C340 C 0.55480 0.44223 0.05232
 C341 C 0.55480 0.55765 -0.05195
 C342 C 0.44484 0.55473 -0.05482
 C343 C 0.44501 0.44442 -0.05462
 C344 C 0.44487 0.55486 0.05420
 C345 C 0.55494 0.44221 -0.05193
 C346 C 0.44501 0.44450 0.05431
 O347 O 0.53291 0.56520 -0.05933
 O348 O 0.56129 0.53371 -0.03041
 O349 O 0.53308 0.43459 -0.05934
 O350 O 0.56138 0.46609 -0.03035
 O351 O 0.46677 0.43686 0.06205
 O352 O 0.43842 0.46705 0.03160
 O353 O 0.49964 0.46934 -0.09557
 O354 O 0.49957 0.52962 -0.09574
 O355 O 0.49938 0.46993 0.09583
 O356 O 0.49933 0.53021 0.09566
 O357 O 0.46672 0.56236 -0.06216
 O358 O 0.43841 0.53210 -0.03198
 O359 O 0.53280 0.56514 0.05964
 O360 O 0.56124 0.53387 0.03063
 O361 O 0.46662 0.56261 0.06190
 O362 O 0.43834 0.53228 0.03152
 O363 O 0.46692 0.43690 -0.06197
 O364 O 0.43853 0.46704 -0.03185
 O365 O 0.49925 0.40072 0.05209
 O366 O 0.49901 0.40048 -0.05078
 O367 O 0.49907 0.59873 -0.05214
 O368 O 0.49872 0.59911 0.05073
 O369 O 0.52045 0.54644 -0.00004
 O370 O 0.52058 0.45317 0.00023
 O371 O 0.47950 0.54602 -0.00013
 O372 O 0.52153 0.49990 0.04527
 O373 O 0.56140 0.46612 0.03086
 O374 O 0.53299 0.43444 0.05981
 O375 O 0.47795 0.49979 0.04542
 O376 O 0.47805 0.49962 -0.04547
 O377 O 0.47964 0.45343 0.00014
 O378 O 0.52164 0.49974 -0.04503
 Zr379 Zr 0.49990 0.45594 0.04422
 Zr380 Zr 0.49986 0.54354 -0.04409
 Zr381 Zr 0.54077 0.49986 0.00017
 Zr382 Zr 0.49977 0.54375 0.04394
 Zr383 Zr 0.49998 0.45582 -0.04383
 Zr384 Zr 0.45902 0.49968 -0.00008
 H385 H 0.46990 0.56799 -0.00021
 H386 H 0.53210 0.49994 0.06535
 H387 H 0.47010 0.43141 0.00008
 H388 H 0.53225 0.49979 -0.06509
 H389 H 0.49916 0.39013 0.02916
 H390 H 0.50429 0.39019 -0.02895
 H391 H 0.50405 0.60932 0.02889
 H392 H 0.49867 0.60939 -0.02925
 C393 C 0.75034 0.75011 0.13877
 C394 C 0.75021 0.75075 0.36062
 C395 C 0.69478 0.80816 0.19740
 C396 C 0.69476 0.69255 0.19797
 C397 C 0.69467 0.80825 0.30184
 C398 C 0.80461 0.80509 0.30462
 C399 C 0.80456 0.69572 0.30497
 C400 C 0.80464 0.80508 0.19485
 C401 C 0.69457 0.69306 0.30226
 C402 C 0.80452 0.69533 0.19521
 O403 O 0.71658 0.81575 0.30923
 O404 O 0.68818 0.78444 0.28021
 O405 O 0.71647 0.68553 0.30970
 O406 O 0.68812 0.71681 0.28047
 O407 O 0.78274 0.68754 0.18772
 O408 O 0.81111 0.71775 0.21800
 O409 O 0.74991 0.72055 0.34549
 O410 O 0.74993 0.78085 0.34527
 O411 O 0.74999 0.72002 0.15412
 O412 O 0.75006 0.78030 0.15388
 O413 O 0.78273 0.81283 0.31190
 O414 O 0.81105 0.78273 0.28160
 O415 O 0.71661 0.81584 0.18988
 O416 O 0.68814 0.78434 0.21892
 O417 O 0.78286 0.81289 0.18727
 O418 O 0.81117 0.78273 0.21780
 O419 O 0.78266 0.68815 0.31233
 O420 O 0.81103 0.71797 0.28181
 O421 O 0.75035 0.65111 0.19847
 O422 O 0.75066 0.65132 0.30089
 O423 O 0.75082 0.84979 0.30015
 O424 O 0.75045 0.84949 0.19778
 O425 O 0.72899 0.79711 0.24950
 O426 O 0.72893 0.70384 0.24985
 O427 O 0.77000 0.79670 0.24952
 O428 O 0.72793 0.75035 0.20453
 O429 O 0.68812 0.71655 0.21924
 O430 O 0.71657 0.68476 0.19048
 O431 O 0.77149 0.75027 0.20428
 O432 O 0.77144 0.75050 0.29505
 O433 O 0.76994 0.70406 0.24987
 O434 O 0.72789 0.75058 0.29475
 Zr435 Zr 0.74961 0.70639 0.20583
 Zr436 Zr 0.74962 0.79442 0.29350
 Zr437 Zr 0.70868 0.75051 0.24966
 Zr438 Zr 0.74967 0.79425 0.20549
 Zr439 Zr 0.74957 0.70666 0.29384
 Zr440 Zr 0.79050 0.75034 0.24970
 H441 H 0.77965 0.81863 0.24955
 H442 H 0.71734 0.75030 0.18447
 H443 H 0.77955 0.68210 0.25003
 H444 H 0.71732 0.75066 0.31484
 H445 H 0.75111 0.64071 0.22147
 H446 H 0.74481 0.64103 0.27938
 H447 H 0.75132 0.85999 0.22071
 H448 H 0.74493 0.85999 0.27860
 C449 C 0.00005 0.00041 0.38868
 C450 C -0.00034 0.00049 0.61062
 C451 C -0.05551 0.05852 0.44780
 C452 C -0.05530 -0.05788 0.44814
 C453 C -0.05574 0.05843 0.55122
 C454 C 0.05424 0.05533 0.55472
 C455 C 0.05434 -0.05410 0.55484
 C456 C 0.05429 0.05543 0.44516
 C457 C -0.05563 -0.05760 0.55137
 C458 C 0.05450 -0.05428 0.44529
 O459 O -0.03387 0.06595 0.55877
 O460 O -0.06215 0.03433 0.52986
 O461 O -0.03375 -0.06503 0.55895
 O462 O -0.06208 -0.03351 0.52995
 O463 O 0.03275 -0.06212 0.43763
 O464 O 0.06097 -0.03186 0.46815
 O465 O -0.00056 -0.02972 0.59560
 O466 O -0.00062 0.03070 0.59554
 O467 O -0.00021 -0.02977 0.40377
 O468 O -0.00030 0.03064 0.40366
 O469 O 0.03234 0.06300 0.56199
 O470 O 0.06070 0.03297 0.53171
 O471 O -0.03370 0.06621 0.44021
 O472 O -0.06213 0.03438 0.46899
 O473 O 0.03254 0.06317 0.43746
 O474 O 0.06084 0.03309 0.46808
 O475 O 0.03246 -0.06183 0.56214
 O476 O 0.06076 -0.03172 0.53178
 O477 O 0.00054 -0.09868 0.44799
 O478 O 0.00056 -0.09867 0.55104
 O479 O 0.00037 0.09967 0.55092
 O480 O 0.00028 0.09963 0.44775
 O481 O -0.02127 0.04706 0.49951
 O482 O -0.02115 -0.04611 0.49963
 O483 O 0.01960 0.04684 0.49963
 O484 O -0.02231 0.00042 0.45432
 O485 O -0.06200 -0.03369 0.46917
 O486 O -0.03348 -0.06549 0.44057
 O487 O 0.02130 0.00053 0.45422
 O488 O 0.02114 0.00055 0.54517
 O489 O 0.01973 -0.04578 0.49977
 O490 O -0.02246 0.00047 0.54475
 Zr491 Zr -0.00048 -0.04344 0.45558
 Zr492 Zr -0.00076 0.04438 0.54368
 Zr493 Zr -0.04151 0.00043 0.49949
 Zr494 Zr -0.00064 0.04439 0.45544
 Zr495 Zr -0.00067 -0.04337 0.54378
 Zr496 Zr 0.04018 0.00058 0.49978
 H497 H 0.02919 0.06882 0.49971
 H498 H -0.03294 0.00037 0.43431
 H499 H 0.02938 -0.06771 0.49990
 H500 H -0.03314 0.00046 0.56474
 H501 H 0.00030 -0.10920 0.47096
 H502 H -0.00433 -0.10908 0.52911
 H503 H -0.00067 0.11016 0.47066
 H504 H -0.00429 0.11012 0.52889
 C505 C 0.25020 0.24912 0.86177
 C506 C 0.25003 0.24888 0.63981
 C507 C 0.19467 0.19104 0.80258
 C508 C 0.19488 0.30748 0.80218
 C509 C 0.19455 0.19117 0.69927
 C510 C 0.30442 0.19367 0.69609
 C511 C 0.30461 0.30387 0.69590
 C512 C 0.30452 0.19350 0.80494
 C513 C 0.19463 0.30725 0.69902
 C514 C 0.30466 0.30413 0.80473
 O515 O 0.21632 0.18348 0.69153
 O516 O 0.18799 0.21521 0.72055
 O517 O 0.21654 0.31459 0.69146
 O518 O 0.18814 0.28317 0.72043
 O519 O 0.28290 0.31189 0.81248
 O520 O 0.31115 0.28143 0.78212
 O521 O 0.24980 0.27909 0.65481
 O522 O 0.24971 0.21868 0.65490
 O523 O 0.24995 0.27930 0.84666
 O524 O 0.24989 0.21890 0.84680
 O525 O 0.28253 0.18615 0.68871
 O526 O 0.31089 0.21625 0.71887
 O527 O 0.21647 0.18333 0.81018
 O528 O 0.18806 0.21521 0.78143
 O529 O 0.28273 0.18591 0.81272
 O530 O 0.31106 0.21611 0.78223
 O531 O 0.28273 0.31149 0.68850
 O532 O 0.31101 0.28125 0.71875
 O533 O 0.25066 0.34813 0.80249
 O534 O 0.25074 0.34805 0.69913
 O535 O 0.25047 0.14974 0.69961
 O536 O 0.25033 0.14990 0.80291
 O537 O 0.22892 0.20247 0.75095
 O538 O 0.22907 0.29560 0.75076
 O539 O 0.26975 0.20263 0.75081
 O540 O 0.22786 0.24910 0.79609
 O541 O 0.18818 0.28328 0.78120
 O542 O 0.21669 0.31503 0.80977
 O543 O 0.27152 0.24893 0.79628
 O544 O 0.27139 0.24883 0.70523
 O545 O 0.26990 0.29518 0.75063
 O546 O 0.22776 0.24900 0.70563
 Zr547 Zr 0.24969 0.29291 0.79483
 Zr548 Zr 0.24943 0.20504 0.70675
 Zr549 Zr 0.20866 0.24911 0.75089
 Zr550 Zr 0.24955 0.20511 0.79503
 Zr551 Zr 0.24958 0.29278 0.70660
 Zr552 Zr 0.29040 0.24883 0.75066
 H553 H 0.27929 0.18060 0.75075
 H554 H 0.21721 0.24918 0.81612
 H555 H 0.27950 0.31714 0.75049
 H556 H 0.21710 0.24905 0.68563
 H557 H 0.25002 0.35869 0.77954
 H558 H 0.24638 0.35855 0.72126
 H559 H 0.24974 0.13929 0.78001
 H560 H 0.24602 0.13936 0.72177
 C561 C 0.49925 0.00019 0.38919
 C562 C 0.49888 -0.00006 0.61068
 C563 C 0.55471 -0.05757 0.44827
 C564 C 0.55462 0.05808 0.44830
 C565 C 0.55464 -0.05751 0.55218
 C566 C 0.44472 -0.05519 0.55430
 C567 C 0.44472 0.05508 0.55420
 C568 C 0.44497 -0.05518 0.44557
 C569 C 0.55456 0.05777 0.55227
 C570 C 0.44488 0.05531 0.44548
 O571 O 0.53275 -0.06514 0.55952
 O572 O 0.56112 -0.03358 0.53063
 O573 O 0.53266 0.06531 0.55964
 O574 O 0.56107 0.03395 0.53066
 O575 O 0.46665 0.06311 0.43790
 O576 O 0.43830 0.03264 0.46809
 O577 O 0.49916 0.03020 0.59572
 O578 O 0.49923 -0.03024 0.59566
 O579 O 0.49951 0.03040 0.40414
 O580 O 0.49955 -0.03002 0.40418
 O581 O 0.46658 -0.06270 0.56184
 O582 O 0.43831 -0.03255 0.53149
 O583 O 0.53294 -0.06536 0.44066
 O584 O 0.56127 -0.03362 0.46960
 O585 O 0.46676 -0.06287 0.43797
 O586 O 0.43835 -0.03255 0.46815
 O587 O 0.46646 0.06283 0.56192
 O588 O 0.43821 0.03255 0.53148
 O589 O 0.49899 0.09935 0.44816
 O590 O 0.49858 0.09931 0.55106
 O591 O 0.49868 -0.09912 0.55113
 O592 O 0.49916 -0.09900 0.44820
 O593 O 0.52040 -0.04649 0.49996
 O594 O 0.52031 0.04680 0.49998
 O595 O 0.47948 -0.04620 0.49986
 O596 O 0.52152 0.00020 0.45479
 O597 O 0.56121 0.03411 0.46964
 O598 O 0.53284 0.06582 0.44066
 O599 O 0.47794 0.00014 0.45437
 O600 O 0.47779 0.00006 0.54530
 O601 O 0.47941 0.04640 0.49987
 O602 O 0.52135 0.00012 0.54511
 Zr603 Zr 0.49977 0.04410 0.45585
 Zr604 Zr 0.49969 -0.04380 0.54392
 Zr605 Zr 0.54059 0.00019 0.50002
 Zr606 Zr 0.49984 -0.04376 0.45587
 Zr607 Zr 0.49962 0.04400 0.54398
 Zr608 Zr 0.45890 0.00007 0.49980
 H609 H 0.46994 -0.06822 0.49991
 H610 H 0.53218 0.00024 0.43478
 H611 H 0.46983 0.06839 0.49989
 H612 H 0.53191 0.00009 0.56520
 H613 H 0.49890 0.10985 0.47112
 H614 H 0.50386 0.10966 0.52926
 H615 H 0.49921 -0.10955 0.47116
 H616 H 0.50385 -0.10947 0.52929
 C617 C 0.75013 0.24946 0.86124
 C618 C 0.74980 0.24873 0.63978
 C619 C 0.69440 0.19146 0.80309
 C620 C 0.69460 0.30726 0.80225
 C621 C 0.69433 0.19140 0.69887
 C622 C 0.80405 0.19420 0.69569
 C623 C 0.80423 0.30381 0.69521
 C624 C 0.80423 0.19437 0.80510
 C625 C 0.69427 0.30672 0.69836
 C626 C 0.80435 0.30416 0.80467
 O627 O 0.71610 0.18373 0.69111
 O628 O 0.68774 0.21518 0.72039
 O629 O 0.71616 0.31416 0.69081
 O630 O 0.68780 0.28291 0.72007
 O631 O 0.78258 0.31200 0.81228
 O632 O 0.81086 0.28164 0.78191
 O633 O 0.74952 0.27899 0.65466
 O634 O 0.74949 0.21855 0.65487
 O635 O 0.74980 0.27961 0.84614
 O636 O 0.74977 0.21919 0.84640
 O637 O 0.78227 0.18636 0.68825
 O638 O 0.81067 0.21657 0.71851
 O639 O 0.71624 0.18373 0.81051
 O640 O 0.68777 0.21535 0.78163
 O641 O 0.78247 0.18656 0.81278
 O642 O 0.81077 0.21671 0.78217
 O643 O 0.78234 0.31140 0.68787
 O644 O 0.81068 0.28145 0.71828
 O645 O 0.75022 0.34844 0.80178
 O646 O 0.75034 0.34816 0.69916
 O647 O 0.75032 0.14960 0.70022
 O648 O 0.75002 0.15004 0.80251
 O649 O 0.72860 0.20244 0.75081
 O650 O 0.72867 0.29569 0.75044
 O651 O 0.76958 0.20278 0.75064
 O652 O 0.72763 0.24927 0.79580
 O653 O 0.68789 0.28320 0.78113
 O654 O 0.71641 0.31499 0.80967
 O655 O 0.77119 0.24919 0.79586
 O656 O 0.77105 0.24891 0.70505
 O657 O 0.76965 0.29542 0.75026
 O658 O 0.72751 0.24896 0.70555
 Zr659 Zr 0.74940 0.29316 0.79439
 Zr660 Zr 0.74919 0.20501 0.70668
 Zr661 Zr 0.70835 0.24909 0.75075
 Zr662 Zr 0.74929 0.20528 0.79476
 Zr663 Zr 0.74924 0.29284 0.70635
 Zr664 Zr 0.79014 0.24909 0.75036
 H665 H 0.77919 0.18082 0.75061
 H666 H 0.71704 0.24937 0.81589
 H667 H 0.77926 0.31738 0.75007
 H668 H 0.71689 0.24894 0.68552
 H669 H 0.75073 0.35885 0.77877
 H670 H 0.74485 0.35852 0.72083
 H671 H 0.75112 0.13952 0.77960
 H672 H 0.74445 0.13951 0.72184
 C673 C 0.00025 0.50025 0.38961
 C674 C 0.00001 0.49958 0.61155
 C675 C -0.05525 0.55788 0.44877
 C676 C -0.05501 0.44160 0.44890
 C677 C -0.05541 0.55797 0.55206
 C678 C 0.05456 0.55486 0.55538
 C679 C 0.05461 0.44517 0.55535
 C680 C 0.05458 0.55506 0.44588
 C681 C -0.05520 0.44169 0.55222
 C682 C 0.05475 0.44524 0.44584
 O683 O -0.03352 0.56550 0.55949
 O684 O -0.06185 0.53371 0.53087
 O685 O -0.03340 0.43417 0.56000
 O686 O -0.06182 0.46569 0.53090
 O687 O 0.03299 0.43743 0.43827
 O688 O 0.06127 0.46762 0.46872
 O689 O -0.00017 0.46939 0.59650
 O690 O -0.00030 0.52980 0.59648
 O691 O 0.00001 0.47001 0.40461
 O692 O -0.00006 0.53043 0.40465
 O693 O 0.03267 0.56238 0.56274
 O694 O 0.06105 0.53247 0.53241
 O695 O -0.03345 0.56549 0.44105
 O696 O -0.06185 0.53381 0.47004
 O697 O 0.03279 0.56274 0.43826
 O698 O 0.06115 0.53267 0.46878
 O699 O 0.03284 0.43734 0.56294
 O700 O 0.06117 0.46753 0.53242
 O701 O 0.00078 0.40088 0.44860
 O702 O 0.00093 0.40050 0.55140
 O703 O 0.00038 0.59880 0.55264
 O704 O 0.00074 0.59929 0.44973
 O705 O -0.02098 0.54639 0.50054
 O706 O -0.02084 0.45326 0.50047
 O707 O 0.01991 0.54622 0.50059
 O708 O -0.02203 0.49992 0.45531
 O709 O -0.06172 0.46571 0.47001
 O710 O -0.03318 0.43404 0.44132
 O711 O 0.02159 0.50006 0.45507
 O712 O 0.02150 0.49981 0.54601
 O713 O 0.02004 0.45365 0.50053
 O714 O -0.02214 0.49971 0.54571
 Zr715 Zr -0.00020 0.45609 0.45639
 Zr716 Zr -0.00044 0.54362 0.54466
 Zr717 Zr -0.04125 0.49977 0.50047
 Zr718 Zr -0.00035 0.54392 0.45646
 Zr719 Zr -0.00032 0.45586 0.54464
 Zr720 Zr 0.04055 0.49999 0.50055
 H721 H 0.02949 0.56821 0.50061
 H722 H -0.03267 0.49989 0.43530
 H723 H 0.02970 0.43173 0.50055
 H724 H -0.03282 0.49974 0.56571
 H725 H 0.00122 0.39028 0.47154
 H726 H -0.00432 0.39029 0.52955
 H727 H -0.00442 0.60946 0.47165
 H728 H 0.00087 0.60948 0.52975
 C729 C 0.25027 0.75018 0.86058
 C730 C 0.25001 0.75098 0.63908
 C731 C 0.19466 0.69245 0.80139
 C732 C 0.19478 0.80877 0.80185
 C733 C 0.19451 0.69289 0.69835
 C734 C 0.30437 0.69519 0.69508
 C735 C 0.30440 0.80555 0.69540
 C736 C 0.30443 0.69483 0.80387
 C737 C 0.19468 0.80896 0.69844
 C738 C 0.30460 0.80533 0.80414
 O739 O 0.21628 0.68523 0.69059
 O740 O 0.18793 0.71694 0.71960
 O741 O 0.21648 0.81645 0.69065
 O742 O 0.18803 0.78494 0.71972
 O743 O 0.28284 0.81316 0.81183
 O744 O 0.31109 0.78274 0.78144
 O745 O 0.24977 0.78114 0.65413
 O746 O 0.24968 0.72072 0.65401
 O747 O 0.24999 0.78044 0.84569
 O748 O 0.24989 0.72003 0.84556
 O749 O 0.28247 0.68782 0.68765
 O750 O 0.31086 0.71774 0.71790
 O751 O 0.21645 0.68468 0.80892
 O752 O 0.18802 0.71672 0.78040
 O753 O 0.28264 0.68721 0.81156
 O754 O 0.31100 0.71752 0.78125
 O755 O 0.28264 0.81340 0.68783
 O756 O 0.31097 0.78290 0.71803
 O757 O 0.25055 0.84954 0.80190
 O758 O 0.25070 0.84997 0.69892
 O759 O 0.25035 0.65160 0.69804
 O760 O 0.25032 0.65125 0.80146
 O761 O 0.22884 0.70410 0.74984
 O762 O 0.22897 0.79727 0.75005
 O763 O 0.26972 0.70414 0.74969
 O764 O 0.22781 0.75050 0.79515
 O765 O 0.18809 0.78473 0.78065
 O766 O 0.21661 0.81631 0.80936
 O767 O 0.27144 0.75032 0.79530
 O768 O 0.27133 0.75063 0.70435
 O769 O 0.26987 0.79673 0.74990
 O770 O 0.22770 0.75082 0.70478
 Zr771 Zr 0.24962 0.79435 0.79404
 Zr772 Zr 0.24938 0.70683 0.70571
 Zr773 Zr 0.20858 0.75077 0.75003
 Zr774 Zr 0.24950 0.70650 0.79384
 Zr775 Zr 0.24951 0.79463 0.70590
 Zr776 Zr 0.29037 0.75034 0.74975
 H777 H 0.27923 0.68208 0.74958
 H778 H 0.21719 0.75047 0.81520
 H779 H 0.27947 0.81869 0.74989
 H780 H 0.21705 0.75090 0.68478
 H781 H 0.25052 0.86018 0.77898
 H782 H 0.24584 0.86026 0.72093
 H783 H 0.24865 0.64073 0.77863
 H784 H 0.24665 0.64100 0.72038
 C785 C 0.49912 0.49979 0.38922
 C786 C 0.49886 0.49915 0.61069
 C787 C 0.55473 0.44192 0.44800
 C788 C 0.55454 0.55766 0.44826
 C789 C 0.55458 0.44187 0.55206
 C790 C 0.44481 0.44391 0.55423
 C791 C 0.44463 0.55437 0.55434
 C792 C 0.44493 0.44414 0.44541
 C793 C 0.55452 0.55725 0.55234
 C794 C 0.44475 0.55471 0.44562
 O795 O 0.53278 0.43415 0.55967
 O796 O 0.56120 0.46571 0.53058
 O797 O 0.53259 0.56462 0.55977
 O798 O 0.56106 0.53346 0.53069
 O799 O 0.46653 0.56252 0.43807
 O800 O 0.43818 0.53196 0.46818
 O801 O 0.49913 0.52941 0.59575
 O802 O 0.49921 0.46897 0.59567
 O803 O 0.49937 0.52995 0.40424
 O804 O 0.49946 0.46954 0.40413
 O805 O 0.46660 0.43630 0.56191
 O806 O 0.43822 0.46652 0.53154
 O807 O 0.53294 0.43414 0.44044
 O808 O 0.56130 0.46584 0.46940
 O809 O 0.46674 0.43652 0.43784
 O810 O 0.43828 0.46670 0.46807
 O811 O 0.46639 0.56207 0.56205
 O812 O 0.43812 0.53181 0.53162
 O813 O 0.49889 0.59877 0.44844
 O814 O 0.49848 0.59856 0.55111
 O815 O 0.49876 0.40002 0.55068
 O816 O 0.49925 0.40042 0.44807
 O817 O 0.52040 0.45290 0.49990
 O818 O 0.52026 0.54614 0.50005
 O819 O 0.47946 0.45310 0.49983
 O820 O 0.52148 0.49965 0.45480
 O821 O 0.56118 0.53366 0.46956
 O822 O 0.53273 0.56533 0.44071
 O823 O 0.47787 0.49951 0.45444
 O824 O 0.47775 0.49925 0.54533
 O825 O 0.47931 0.54565 0.49998
 O826 O 0.52134 0.49939 0.54508
 Zr827 Zr 0.49968 0.54350 0.45597
 Zr828 Zr 0.49970 0.45540 0.54392
 Zr829 Zr 0.54063 0.49959 0.50000
 Zr830 Zr 0.49983 0.45565 0.45581
 Zr831 Zr 0.49956 0.54323 0.54404
 Zr832 Zr 0.45879 0.49931 0.49987
 H833 H 0.46994 0.43107 0.49982
 H834 H 0.53211 0.49975 0.43477
 H835 H 0.46972 0.56763 0.50004
 H836 H 0.53190 0.49940 0.56517
 H837 H 0.49843 0.60920 0.47143
 H838 H 0.50397 0.60891 0.52941
 H839 H 0.49855 0.38985 0.47100
 H840 H 0.50430 0.38988 0.52893
 C841 C 0.75017 0.74989 0.86060
 C842 C 0.74984 0.75087 0.63914
 C843 C 0.69460 0.69234 0.80182
 C844 C 0.69453 0.80800 0.80239
 C845 C 0.69436 0.69302 0.69784
 C846 C 0.80413 0.69572 0.69477
 C847 C 0.80415 0.80533 0.69508
 C848 C 0.80432 0.69527 0.80420
 C849 C 0.69446 0.80832 0.69829
 C850 C 0.80435 0.80497 0.80448
 O851 O 0.71614 0.68543 0.69003
 O852 O 0.68778 0.71670 0.71949
 O853 O 0.71623 0.81594 0.69051
 O854 O 0.68784 0.78448 0.71977
 O855 O 0.78259 0.81280 0.81213
 O856 O 0.81088 0.78265 0.78155
 O857 O 0.74956 0.78103 0.65422
 O858 O 0.74955 0.72058 0.65402
 O859 O 0.74985 0.78017 0.84573
 O860 O 0.74982 0.71975 0.84553
 O861 O 0.78234 0.68802 0.68722
 O862 O 0.81074 0.71796 0.71772
 O863 O 0.71641 0.68453 0.80920
 O864 O 0.68791 0.71640 0.78062
 O865 O 0.78256 0.68741 0.81177
 O866 O 0.81087 0.71776 0.78140
 O867 O 0.78237 0.81317 0.68760
 O868 O 0.81076 0.78290 0.71789
 O869 O 0.75015 0.84938 0.80178
 O870 O 0.75043 0.84990 0.69942
 O871 O 0.75033 0.65128 0.69886
 O872 O 0.75018 0.65097 0.80119
 O873 O 0.72869 0.70379 0.74984
 O874 O 0.72870 0.79704 0.75014
 O875 O 0.76967 0.70404 0.74966
 O876 O 0.72769 0.75021 0.79516
 O877 O 0.68788 0.78417 0.78095
 O878 O 0.71636 0.81572 0.80979
 O879 O 0.77125 0.75018 0.79523
 O880 O 0.77111 0.75055 0.70443
 O881 O 0.76968 0.79668 0.74997
 O882 O 0.72757 0.75060 0.70492
 Zr883 Zr 0.74940 0.79415 0.79409
 Zr884 Zr 0.74925 0.70663 0.70572
 Zr885 Zr 0.70840 0.75043 0.75011
 Zr886 Zr 0.74941 0.70626 0.79379
 Zr887 Zr 0.74929 0.79450 0.70601
 Zr888 Zr 0.79021 0.75034 0.74974
 H889 H 0.77927 0.68208 0.74953
 H890 H 0.71712 0.75011 0.81525
 H891 H 0.77930 0.81863 0.74994
 H892 H 0.71695 0.75070 0.68489
 H893 H 0.75115 0.85993 0.77886
 H894 H 0.74472 0.86001 0.72109
 H895 H 0.75114 0.64061 0.77822
 H896 H 0.74455 0.64102 0.72045
 C897 C 0.00125 -0.03232 0.20100
 C898 C 0.00129 -0.00024 0.21871
 C899 C 0.00131 0.03174 0.20080
 C900 C 0.00121 0.03170 0.16532
 C901 C 0.00108 -0.00042 0.14721
 C902 C 0.00116 -0.03246 0.16552
 C903 C 0.00117 -0.00012 0.25526
 C904 C 0.00099 0.00003 0.28585
 C905 C 0.00072 0.00022 0.32168
 C906 C 0.00043 0.00035 0.35227
 H907 H 0.00124 -0.05724 0.21462
 H908 H 0.00134 0.05673 0.21425
 H909 H 0.00118 0.05685 0.15213
 H910 H 0.00108 -0.05766 0.15247
 C911 C 0.25091 0.28162 1.04953
 C912 C 0.25105 0.24962 1.03177
 C913 C 0.25105 0.21765 1.04962
 C914 C 0.25084 0.21755 1.08509
 C915 C 0.25059 0.24966 1.10358
 C916 C 0.25070 0.28175 1.08501
 C917 C 0.25104 0.24957 0.99522
 C918 C 0.25095 0.24947 0.96462
 C919 C 0.25076 0.24932 0.92878
 C920 C 0.25054 0.24920 0.89818
 H921 H 0.25091 0.30656 1.03593
 H922 H 0.25117 0.19269 1.03610
 H923 H 0.25082 0.19215 1.09786
 H924 H 0.25056 0.30717 1.09772
 C925 C 0.08601 0.11297 0.11786
 C926 C 0.11002 0.10611 0.11102
 C927 C 0.11619 0.08246 0.08514
 C928 C 0.09841 0.06568 0.06620
 C929 C 0.07417 0.07239 0.07289
 C930 C 0.06820 0.09627 0.09898
 C931 C 0.12828 0.12361 0.13040
 C932 C 0.14346 0.13861 0.14652
 C933 C 0.16123 0.15660 0.16508
 C934 C 0.17647 0.17234 0.18041
 H935 H 0.08103 0.13126 0.13780
 H936 H 0.13475 0.07699 0.07961
 H937 H 0.10367 0.04744 0.04639
 H938 H 0.04976 0.10202 0.10495
 C939 C 0.36574 0.33512 0.16563
 C940 C 0.35970 0.35901 0.13989
 C941 C 0.33575 0.36517 0.13213
 C942 C 0.31784 0.34754 0.15004
 C943 C 0.32367 0.32343 0.17602
 C944 C 0.34786 0.31741 0.18359
 C945 C 0.37806 0.37727 0.12144
 C946 C 0.39338 0.39265 0.10593
 C947 C 0.41130 0.41072 0.08781
 C948 C 0.42664 0.42617 0.07242
 H949 H 0.38425 0.33017 0.17182
 H950 H 0.33090 0.38362 0.11223
 H951 H 0.29944 0.35277 0.14345
 H952 H 0.35301 0.29905 0.20339
 C953 C 0.36587 0.16359 0.16564
 C954 C 0.35989 0.13959 0.13999
 C955 C 0.33590 0.13346 0.13231
 C956 C 0.31797 0.15119 0.15016
 C957 C 0.32377 0.17539 0.17605
 C958 C 0.34797 0.18138 0.18355
 C959 C 0.37831 0.12122 0.12154
 C960 C 0.39368 0.10578 0.10606
 C961 C 0.41168 0.08765 0.08794
 C962 C 0.42708 0.07219 0.07255
 H963 H 0.38438 0.16855 0.17181
 H964 H 0.33104 0.11496 0.11250
 H965 H 0.29957 0.14594 0.14361
 H966 H 0.35313 0.19979 0.20326
 C967 C 0.16388 0.37052 0.13641
 C968 C 0.13987 0.36399 0.14364
 C969 C 0.13376 0.33991 0.16920
 C970 C 0.15157 0.32207 0.18719
 C971 C 0.17580 0.32808 0.17981
 C972 C 0.18173 0.35275 0.15435
 C973 C 0.12155 0.38158 0.12442
 C974 C 0.10626 0.39620 0.10814
 C975 C 0.08835 0.41328 0.08905
 C976 C 0.07299 0.42792 0.07293
 H977 H 0.16882 0.38912 0.11668
 H978 H 0.11521 0.33469 0.17502
 H979 H 0.14633 0.30335 0.20663
 H980 H 0.20015 0.35803 0.14792
 C981 C 0.33555 0.13404 0.36702
 C982 C 0.35953 0.14026 0.35936
 C983 C 0.36559 0.16410 0.33357
 C984 C 0.34773 0.18170 0.31549
 C985 C 0.32353 0.17564 0.32297
 C986 C 0.31766 0.15158 0.34899
 C987 C 0.37789 0.12212 0.37796
 C988 C 0.39322 0.10685 0.39357
 C989 C 0.41115 0.08891 0.41181
 C990 C 0.42651 0.07357 0.42728
 H991 H 0.33068 0.11564 0.38695
 H992 H 0.38411 0.16909 0.32745
 H993 H 0.35291 0.20003 0.29567
 H994 H 0.29925 0.14631 0.35552
 C995 C 0.16382 0.37048 0.36236
 C996 C 0.13979 0.36335 0.35585
 C997 C 0.13364 0.33873 0.33084
 C998 C 0.15142 0.32100 0.31265
 C999 C 0.17568 0.32766 0.31929
 C1000 C 0.18163 0.35282 0.34424
 C1001 C 0.12152 0.38095 0.37523
 C1002 C 0.10629 0.39563 0.39164
 C1003 C 0.08847 0.41284 0.41085
 C1004 C 0.07317 0.42758 0.42704
 H1005 H 0.16880 0.38949 0.38165
 H1006 H 0.11509 0.33302 0.32557
 H1007 H 0.14616 0.30185 0.29366
 H1008 H 0.20007 0.35863 0.35010
 C1009 C 0.16359 0.12859 0.36172
 C1010 C 0.13963 0.13658 0.35573
 C1011 C 0.13355 0.16188 0.33128
 C1012 C 0.15139 0.17945 0.31312
 C1013 C 0.17559 0.17193 0.31923
 C1014 C 0.18147 0.14610 0.34362
 C1015 C 0.12130 0.11919 0.37504
 C1016 C 0.10599 0.10469 0.39134
 C1017 C 0.08806 0.08770 0.41040
 C1018 C 0.07269 0.07307 0.42648
 H1019 H 0.16847 0.10903 0.38060
 H1020 H 0.11503 0.16824 0.32645
 H1021 H 0.14620 0.19918 0.29459
 H1022 H 0.19988 0.13964 0.34904
 C1023 C 0.33572 0.36501 0.36679
 C1024 C 0.35971 0.35877 0.35920
 C1025 C 0.36575 0.33484 0.33351
 C1026 C 0.34788 0.31720 0.31547
 C1027 C 0.32367 0.32331 0.32289
 C1028 C 0.31782 0.34745 0.34881
 C1029 C 0.37808 0.37697 0.37778
 C1030 C 0.39338 0.39231 0.39339
 C1031 C 0.41128 0.41036 0.41166
 C1032 C 0.42659 0.42579 0.42716
 H1033 H 0.33084 0.38347 0.38664
 H1034 H 0.38427 0.32979 0.32742
 H1035 H 0.35306 0.29882 0.29573
 H1036 H 0.29941 0.35278 0.35530
 C1037 C 0.49833 -0.03294 0.20227
 C1038 C 0.49884 -0.00081 0.21983
 C1039 C 0.49960 0.03114 0.20195
 C1040 C 0.49988 0.03102 0.16653
 C1041 C 0.49942 -0.00115 0.14855
 C1042 C 0.49861 -0.03316 0.16684
 C1043 C 0.49872 -0.00059 0.25623
 C1044 C 0.49871 -0.00034 0.28674
 C1045 C 0.49880 -0.00004 0.32243
 C1046 C 0.49896 0.00014 0.35293
 H1047 H 0.49774 -0.05781 0.21595
 H1048 H 0.50001 0.05614 0.21537
 H1049 H 0.50052 0.05613 0.15330
 H1050 H 0.49821 -0.05838 0.15383
 C1051 C 0.75185 0.28159 1.04836
 C1052 C 0.75167 0.24960 1.03058
 C1053 C 0.75142 0.21750 1.04825
 C1054 C 0.75126 0.21734 1.08367
 C1055 C 0.75134 0.24938 1.10187
 C1056 C 0.75169 0.28154 1.08379
 C1057 C 0.75155 0.24968 0.99418
 C1058 C 0.75134 0.24970 0.96367
 C1059 C 0.75099 0.24966 0.92799
 C1060 C 0.75062 0.24958 0.89749
 H1061 H 0.75204 0.30658 1.03485
 H1062 H 0.75127 0.19259 1.03465
 H1063 H 0.75100 0.19212 1.09675
 H1064 H 0.75179 0.30668 1.09695
 C1065 C 0.58636 0.11762 0.11442
 C1066 C 0.61036 0.10974 0.10845
 C1067 C 0.61648 0.08529 0.08325
 C1068 C 0.59868 0.06844 0.06439
 C1069 C 0.57445 0.07582 0.07051
 C1070 C 0.56853 0.10084 0.09562
 C1071 C 0.62864 0.12655 0.12838
 C1072 C 0.64389 0.14075 0.14507
 C1073 C 0.66175 0.15773 0.16434
 C1074 C 0.67707 0.17270 0.18028
 H1075 H 0.58141 0.13655 0.13382
 H1076 H 0.63501 0.07903 0.07836
 H1077 H 0.60392 0.04934 0.04532
 H1078 H 0.55010 0.10715 0.10111
 C1079 C -0.13383 0.33344 0.16447
 C1080 C -0.14000 0.35636 0.13798
 C1081 C -0.16401 0.36242 0.13049
 C1082 C -0.18182 0.34558 0.14932
 C1083 C -0.17585 0.32238 0.17600
 C1084 C -0.15161 0.31652 0.18336
 C1085 C -0.12174 0.37393 0.11862
 C1086 C -0.10653 0.38894 0.10250
 C1087 C -0.08874 0.40692 0.08397
 C1088 C -0.07347 0.42267 0.06862
 H1089 H -0.11527 0.32862 0.17051
 H1090 H -0.16899 0.38015 0.11006
 H1091 H -0.20026 0.35065 0.14283
 H1092 H -0.14634 0.29886 0.20367
 C1093 C 0.91434 0.11998 0.11182
 C1094 C 0.89032 0.11281 0.10531
 C1095 C 0.88419 0.08824 0.08023
 C1096 C 0.90200 0.07061 0.06199
 C1097 C 0.92625 0.07732 0.06863
 C1098 C 0.93218 0.10243 0.09364
 C1099 C 0.87202 0.13030 0.12475
 C1100 C 0.85678 0.14490 0.14120
 C1101 C 0.83894 0.16202 0.16048
 C1102 C 0.82363 0.17669 0.17673
 H1103 H 0.91930 0.13895 0.13116
 H1104 H 0.86565 0.08248 0.07496
 H1105 H 0.89675 0.05150 0.04295
 H1106 H 0.95061 0.10827 0.09950
 C1107 C 0.66425 0.36783 0.13527
 C1108 C 0.64024 0.36065 0.14192
 C1109 C 0.63416 0.33680 0.16771
 C1110 C 0.65200 0.31984 0.18647
 C1111 C 0.67624 0.32650 0.17967
 C1112 C 0.68212 0.35093 0.15397
 C1113 C 0.62188 0.37754 0.12209
 C1114 C 0.60655 0.39177 0.10548
 C1115 C 0.58859 0.40873 0.08628
 C1116 C 0.57321 0.42367 0.07037
 H1117 H 0.66918 0.38628 0.11540
 H1118 H 0.61562 0.33109 0.17315
 H1119 H 0.64677 0.30125 0.20603
 H1120 H 0.70055 0.35669 0.14794
 C1121 C -0.16502 0.13641 0.36814
 C1122 C -0.14105 0.14381 0.36162
 C1123 C -0.13503 0.16802 0.33616
 C1124 C -0.15287 0.18483 0.31729
 C1125 C -0.17725 0.17772 0.32353
 C1126 C -0.18294 0.15310 0.34940
 C1127 C -0.12264 0.12628 0.38085
 C1128 C -0.10729 0.11134 0.39681
 C1129 C -0.08930 0.09344 0.41517
 C1130 C -0.07391 0.07776 0.43040
 H1131 H -0.16989 0.11766 0.38778
 H1132 H -0.11650 0.17392 0.33085
 H1133 H -0.14738 0.20346 0.29788
 H1134 H -0.20127 0.14658 0.35542
 C1135 C 0.66411 0.36759 0.36515
 C1136 C 0.64012 0.35998 0.35887
 C1137 C 0.63406 0.33573 0.33347
 C1138 C 0.65191 0.31883 0.31471
 C1139 C 0.67613 0.32596 0.32111
 C1140 C 0.68199 0.35075 0.34644
 C1141 C 0.62177 0.37690 0.37864
 C1142 C 0.60646 0.39119 0.39518
 C1143 C 0.58852 0.40826 0.41429
 C1144 C 0.57315 0.42329 0.43010
 H1145 H 0.66901 0.38635 0.38471
 H1146 H 0.61554 0.32969 0.32834
 H1147 H 0.64671 0.29992 0.29545
 H1148 H 0.70041 0.35688 0.35215
 C1149 C 0.66416 0.13058 0.36508
 C1150 C 0.64023 0.13894 0.35926
 C1151 C 0.63420 0.16357 0.33418
 C1152 C 0.65206 0.18017 0.31524
 C1153 C 0.67624 0.17233 0.32118
 C1154 C 0.68206 0.14712 0.34619
 C1155 C 0.62187 0.12238 0.37916
 C1156 C 0.60648 0.10839 0.39574
 C1157 C 0.58845 0.09162 0.41480
 C1158 C 0.57302 0.07673 0.43052
 H1159 H 0.66900 0.11148 0.38440
 H1160 H 0.61571 0.17017 0.32944
 H1161 H 0.64691 0.19945 0.29627
 H1162 H 0.70046 0.14047 0.35151
 C1163 C -0.16397 0.36264 0.36971
 C1164 C -0.13997 0.35574 0.36284
 C1165 C -0.13383 0.33199 0.33704
 C1166 C -0.15164 0.31515 0.31820
 C1167 C -0.17587 0.32191 0.32491
 C1168 C -0.18181 0.34587 0.35093
 C1169 C -0.12166 0.37333 0.38205
 C1170 C -0.10641 0.38838 0.39801
 C1171 C -0.08857 0.40642 0.41637
 C1172 C -0.07329 0.42224 0.43157
 H1173 H -0.16892 0.38101 0.38960
 H1174 H -0.11529 0.32648 0.33148
 H1175 H -0.14639 0.29683 0.29844
 H1176 H -0.20024 0.35166 0.35690
 C1177 C 0.00057 0.46847 0.20197
 C1178 C 0.00083 0.50052 0.21971
 C1179 C 0.00094 0.53253 0.20184
 C1180 C 0.00074 0.53254 0.16636
 C1181 C 0.00041 0.50043 0.14823
 C1182 C 0.00037 0.46838 0.16650
 C1183 C 0.00087 0.50054 0.25624
 C1184 C 0.00083 0.50050 0.28682
 C1185 C 0.00070 0.50041 0.32264
 C1186 C 0.00053 0.50033 0.35322
 H1187 H 0.00048 0.44353 0.21556
 H1188 H 0.00114 0.55750 0.21532
 H1189 H 0.00081 0.55770 0.15318
 H1190 H 0.00013 0.44318 0.15344
 C1191 C 0.25091 0.78225 1.04748
 C1192 C 0.25158 0.75015 1.02988
 C1193 C 0.25211 0.71817 1.04772
 C1194 C 0.25188 0.71822 1.08314
 C1195 C 0.25111 0.75036 1.10115
 C1196 C 0.25069 0.78240 1.08289
 C1197 C 0.25151 0.75005 0.99350
 C1198 C 0.25135 0.75001 0.96299
 C1199 C 0.25104 0.75001 0.92732
 C1200 C 0.25071 0.75006 0.89683
 H1201 H 0.25049 0.80714 1.03382
 H1202 H 0.25263 0.69319 1.03426
 H1203 H 0.25228 0.69309 1.09636
 H1204 H 0.25011 0.80761 1.09592
 C1205 C 0.08554 0.61362 0.11908
 C1206 C 0.10956 0.60763 0.11146
 C1207 C 0.11564 0.58470 0.08494
 C1208 C 0.09780 0.56777 0.06619
 C1209 C 0.07357 0.57357 0.07369
 C1210 C 0.06767 0.59676 0.10039
 C1211 C 0.12791 0.62519 0.13071
 C1212 C 0.14322 0.64015 0.14672
 C1213 C 0.16115 0.65801 0.16517
 C1214 C 0.17651 0.67364 0.18048
 H1215 H 0.08060 0.63133 0.13952
 H1216 H 0.13417 0.57989 0.07876
 H1217 H 0.10303 0.55013 0.04587
 H1218 H 0.04925 0.60181 0.10699
 C1219 C 0.41549 0.88315 0.11584
 C1220 C 0.39150 0.89000 0.10881
 C1221 C 0.38559 0.91456 0.08361
 C1222 C 0.40349 0.93225 0.06554
 C1223 C 0.42788 0.92573 0.07230
 C1224 C 0.43349 0.90073 0.09787
 C1225 C 0.37298 0.87184 0.12747
 C1226 C 0.35748 0.85666 0.14309
 C1227 C 0.33930 0.83885 0.16136
 C1228 C 0.32376 0.82365 0.17685
 H1229 H 0.42033 0.86419 0.13530
 H1230 H 0.36707 0.92010 0.07790
 H1231 H 0.39804 0.95106 0.04628
 H1232 H 0.45181 0.89460 0.10427
 C1233 C 0.36573 0.66327 0.16653
 C1234 C 0.35962 0.64012 0.14026
 C1235 C 0.33565 0.63479 0.13204
 C1236 C 0.31781 0.65256 0.14998
 C1237 C 0.32373 0.67597 0.17646
 C1238 C 0.34792 0.68111 0.18453
 C1239 C 0.37792 0.62182 0.12168
 C1240 C 0.39320 0.60645 0.10607
 C1241 C 0.41110 0.58844 0.08783
 C1242 C 0.42646 0.57308 0.07236
 H1243 H 0.38425 0.66756 0.17310
 H1244 H 0.33073 0.61693 0.11172
 H1245 H 0.29941 0.64801 0.14299
 H1246 H 0.35314 0.69887 0.20475
 C1247 C 0.08632 0.88675 0.11810
 C1248 C 0.11029 0.89385 0.11118
 C1249 C 0.11635 0.91743 0.08517
 C1250 C 0.09849 0.93394 0.06616
 C1251 C 0.07428 0.92703 0.07294
 C1252 C 0.06843 0.90320 0.09916
 C1253 C 0.12864 0.87663 0.13058
 C1254 C 0.14393 0.86185 0.14669
 C1255 C 0.16178 0.84406 0.16519
 C1256 C 0.17706 0.82837 0.18051
 H1257 H 0.08145 0.86850 0.13816
 H1258 H 0.13487 0.92305 0.07958
 H1259 H 0.10366 0.95216 0.04625
 H1260 H 0.05002 0.89731 0.10518
 C1261 C 0.33555 0.63458 0.36736
 C1262 C 0.35955 0.64056 0.35970
 C1263 C 0.36569 0.66441 0.33395
 C1264 C 0.34789 0.68221 0.31589
 C1265 C 0.32365 0.67636 0.32336
 C1266 C 0.31772 0.65231 0.34937
 C1267 C 0.37786 0.62219 0.37827
 C1268 C 0.39314 0.60672 0.39384
 C1269 C 0.41103 0.58856 0.41204
 C1270 C 0.42637 0.57308 0.42747
 H1271 H 0.33060 0.61618 0.38727
 H1272 H 0.38423 0.66925 0.32781
 H1273 H 0.35313 0.70052 0.29609
 H1274 H 0.29929 0.64719 0.35589
 C1275 C 0.16404 -0.12799 0.36210
 C1276 C 0.14004 -0.13578 0.35610
 C1277 C 0.13394 -0.16099 0.33162
 C1278 C 0.15175 -0.17863 0.31344
 C1279 C 0.17598 -0.17130 0.31954
 C1280 C 0.18189 -0.14558 0.34398
 C1281 C 0.12172 -0.11825 0.37540
 C1282 C 0.10639 -0.10366 0.39166
 C1283 C 0.08840 -0.08659 0.41065
 C1284 C 0.07298 -0.07193 0.42666
 H1285 H 0.16898 -0.10852 0.38099
 H1286 H 0.11540 -0.16722 0.32676
 H1287 H 0.14651 -0.19826 0.29489
 H1288 H 0.20032 -0.13926 0.34941
 C1289 C 0.16374 0.62964 0.36228
 C1290 C 0.13973 0.63762 0.35647
 C1291 C 0.13364 0.66310 0.33217
 C1292 C 0.15146 0.68078 0.31398
 C1293 C 0.17569 0.67322 0.31987
 C1294 C 0.18159 0.64726 0.34415
 C1295 C 0.12142 0.61994 0.37575
 C1296 C 0.10616 0.60515 0.39204
 C1297 C 0.08829 0.58780 0.41110
 C1298 C 0.07297 0.57292 0.42717
 H1299 H 0.16867 0.60997 0.38102
 H1300 H 0.11511 0.66949 0.32745
 H1301 H 0.14624 0.70060 0.29556
 H1302 H 0.20000 0.64073 0.34943
 C1303 C 0.33585 -0.13374 0.36676
 C1304 C 0.35984 -0.14069 0.35980
 C1305 C 0.36594 -0.16527 0.33472
 C1306 C 0.34810 -0.18284 0.31661
 C1307 C 0.32388 -0.17600 0.32335
 C1308 C 0.31799 -0.15124 0.34871
 C1309 C 0.37816 -0.12249 0.37835
 C1310 C 0.39345 -0.10711 0.39391
 C1311 C 0.41132 -0.08902 0.41206
 C1312 C 0.42664 -0.07355 0.42746
 H1313 H 0.33095 -0.11476 0.38614
 H1314 H 0.38447 -0.17084 0.32916
 H1315 H 0.35330 -0.20175 0.29735
 H1316 H 0.29957 -0.14535 0.35466
 C1317 C 0.49779 0.46818 0.20215
 C1318 C 0.49820 0.50023 0.21983
 C1319 C 0.49876 0.53226 0.20205
 C1320 C 0.49896 0.53228 0.16661
 C1321 C 0.49863 0.50017 0.14852
 C1322 C 0.49800 0.46810 0.16672
 C1323 C 0.49821 0.50022 0.25623
 C1324 C 0.49830 0.50016 0.28675
 C1325 C 0.49851 0.50004 0.32244
 C1326 C 0.49875 0.49992 0.35295
 H1327 H 0.49737 0.44324 0.21574
 H1328 H 0.49909 0.55721 0.21556
 H1329 H 0.49946 0.55744 0.15345
 H1330 H 0.49771 0.44291 0.15365
 C1331 C 0.75121 0.78188 1.04755
 C1332 C 0.75126 0.74978 1.02994
 C1333 C 0.75113 0.71778 1.04779
 C1334 C 0.75090 0.71784 1.08321
 C1335 C 0.75077 0.74999 1.10123
 C1336 C 0.75098 0.78203 1.08297
 C1337 C 0.75125 0.74968 0.99355
 C1338 C 0.75113 0.74965 0.96304
 C1339 C 0.75089 0.74967 0.92735
 C1340 C 0.75060 0.74974 0.89685
 H1341 H 0.75130 0.80679 1.03390
 H1342 H 0.75115 0.69279 1.03432
 H1343 H 0.75076 0.69270 1.09642
 H1344 H 0.75091 0.80725 1.09599
 C1345 C 0.58556 0.61808 0.11533
 C1346 C 0.60957 0.61103 0.10857
 C1347 C 0.61570 0.58745 0.08264
 C1348 C 0.59790 0.57059 0.06383
 C1349 C 0.57366 0.57709 0.07074
 C1350 C 0.56772 0.60128 0.09658
 C1351 C 0.62788 0.62781 0.12843
 C1352 C 0.64316 0.64198 0.14506
 C1353 C 0.66107 0.65893 0.16423
 C1354 C 0.67641 0.67390 0.18007
 H1355 H 0.58062 0.63634 0.13532
 H1356 H 0.63425 0.58187 0.07713
 H1357 H 0.60314 0.55218 0.04414
 H1358 H 0.54929 0.60691 0.10268
 C1359 C 0.91420 0.87916 0.11194
 C1360 C 0.89020 0.88618 0.10508
 C1361 C 0.88417 0.91056 0.07973
 C1362 C 0.90204 0.92815 0.06159
 C1363 C 0.92627 0.92161 0.06858
 C1364 C 0.93211 0.89669 0.09385
 C1365 C 0.87181 0.86875 0.12439
 C1366 C 0.85646 0.85424 0.14072
 C1367 C 0.83847 0.83726 0.15985
 C1368 C 0.82307 0.82267 0.17601
 H1369 H 0.91909 0.86034 0.13150
 H1370 H 0.86565 0.91619 0.07418
 H1371 H 0.89686 0.94711 0.04233
 H1372 H 0.95053 0.89099 0.09998
 C1373 C 0.91365 0.62041 0.11263
 C1374 C 0.88965 0.61378 0.10550
 C1375 C 0.88356 0.58971 0.07996
 C1376 C 0.90140 0.57201 0.06190
 C1377 C 0.92562 0.57814 0.06918
 C1378 C 0.93151 0.60278 0.09462
 C1379 C 0.87132 0.63126 0.12478
 C1380 C 0.85605 0.64585 0.14112
 C1381 C 0.83819 0.66294 0.16027
 C1382 C 0.82288 0.67763 0.17644
 H1383 H 0.91856 0.63900 0.13234
 H1384 H 0.86502 0.58441 0.07421
 H1385 H 0.89619 0.55330 0.04247
 H1386 H 0.94993 0.60816 0.10097
 C1387 C 0.58538 0.88093 0.11312
 C1388 C 0.60932 0.88924 0.10740
 C1389 C 0.61531 0.91402 0.08244
 C1390 C 0.59747 0.93086 0.06360
 C1391 C 0.57310 0.92331 0.06946
 C1392 C 0.56745 0.89765 0.09440
 C1393 C 0.62771 0.87252 0.12733
 C1394 C 0.64305 0.85842 0.14401
 C1395 C 0.66103 0.84158 0.16330
 C1396 C 0.67640 0.82671 0.17928
 H1397 H 0.58053 0.86168 0.13231
 H1398 H 0.63382 0.92057 0.07769
 H1399 H 0.60294 0.95013 0.04477
 H1400 H 0.54914 0.89063 0.09998
 C1401 C -0.16455 0.63628 0.36913
 C1402 C -0.14053 0.64364 0.36268
 C1403 C -0.13442 0.66792 0.33729
 C1404 C -0.15222 0.68480 0.31841
 C1405 C -0.17646 0.67757 0.32466
 C1406 C -0.18239 0.65310 0.35031
 C1407 C -0.12221 0.62599 0.38192
 C1408 C -0.10691 0.61092 0.39787
 C1409 C -0.08899 0.59290 0.41621
 C1410 C -0.07364 0.57714 0.43142
 H1411 H -0.16950 0.61751 0.38870
 H1412 H -0.11588 0.67381 0.33206
 H1413 H -0.14698 0.70353 0.29898
 H1414 H -0.20081 0.64692 0.35593
 C1415 C 0.66384 -0.13040 0.36410
 C1416 C 0.63988 -0.13890 0.35873
 C1417 C 0.63374 -0.16383 0.33401
 C1418 C 0.65151 -0.18056 0.31500
 C1419 C 0.67571 -0.17255 0.32050
 C1420 C 0.68164 -0.14706 0.34515
 C1421 C 0.62163 -0.12219 0.37873
 C1422 C 0.60637 -0.10806 0.39543
 C1423 C 0.58847 -0.09114 0.41463
 C1424 C 0.57311 -0.07618 0.43045
 H1425 H 0.66877 -0.11108 0.38314
 H1426 H 0.61523 -0.17055 0.32961
 H1427 H 0.64628 -0.20007 0.29633
 H1428 H 0.70005 -0.14026 0.35014
 C1429 C 0.66363 0.63165 0.36456
 C1430 C 0.63966 0.64007 0.35907
 C1431 C 0.63356 0.66506 0.33433
 C1432 C 0.65136 0.68188 0.31540
 C1433 C 0.67557 0.67391 0.32098
 C1434 C 0.68146 0.64841 0.34569
 C1435 C 0.62137 0.62315 0.37895
 C1436 C 0.60610 0.60881 0.39554
 C1437 C 0.58822 0.59165 0.41465
 C1438 C 0.57289 0.57649 0.43043
 H1439 H 0.66855 0.61229 0.38361
 H1440 H 0.61505 0.67174 0.32983
 H1441 H 0.64615 0.70140 0.29668
 H1442 H 0.69987 0.64162 0.35075
 C1443 C -0.16445 -0.13574 0.36867
 C1444 C -0.14047 -0.14338 0.36234
 C1445 C -0.13438 -0.16772 0.33703
 C1446 C -0.15220 -0.18439 0.31812
 C1447 C -0.17641 -0.17689 0.32426
 C1448 C -0.18231 -0.15236 0.34981
 C1449 C -0.12213 -0.12593 0.38157
 C1450 C -0.10683 -0.11098 0.39750
 C1451 C -0.08893 -0.09304 0.41578
 C1452 C -0.07360 -0.07726 0.43091
 H1453 H -0.16935 -0.11691 0.38818
 H1454 H -0.11585 -0.17379 0.33191
 H1455 H -0.14699 -0.20319 0.29876
 H1456 H -0.20072 -0.14599 0.35534
 C1457 C 0.00078 0.03188 0.79862
 C1458 C 0.00079 -0.00005 0.78075
 C1459 C 0.00083 -0.03209 0.79852
 C1460 C 0.00080 -0.03230 0.83401
 C1461 C 0.00070 -0.00026 0.85260
 C1462 C 0.00075 0.03189 0.83411
 C1463 C 0.00065 0.00007 0.74416
 C1464 C 0.00047 0.00021 0.71354
 C1465 C 0.00021 0.00036 0.67768
 C1466 C -0.00003 0.00046 0.64706
 H1467 H 0.00076 0.05687 0.78511
 H1468 H 0.00085 -0.05700 0.78493
 H1469 H 0.00080 -0.05774 0.84672
 H1470 H 0.00071 0.05727 0.84688
 C1471 C 0.25076 0.21725 0.45187
 C1472 C 0.25080 0.24923 0.46974
 C1473 C 0.25072 0.28130 0.45195
 C1474 C 0.25055 0.28143 0.41645
 C1475 C 0.25043 0.24940 0.39820
 C1476 C 0.25058 0.21728 0.41639
 C1477 C 0.25079 0.24914 0.50631
 C1478 C 0.25071 0.24904 0.53692
 C1479 C 0.25054 0.24894 0.57277
 C1480 C 0.25034 0.24888 0.60338
 H1481 H 0.25081 0.19226 0.46538
 H1482 H 0.25075 0.30623 0.46551
 H1483 H 0.25046 0.30664 0.40336
 H1484 H 0.25052 0.19213 0.40324
 C1485 C 0.08519 0.11530 0.61815
 C1486 C 0.10915 0.10688 0.61257
 C1487 C 0.11522 0.08184 0.58789
 C1488 C 0.09741 0.06520 0.56891
 C1489 C 0.07322 0.07342 0.57435
 C1490 C 0.06734 0.09871 0.59923
 C1491 C 0.12749 0.12418 0.63198
 C1492 C 0.14280 0.13894 0.64808
 C1493 C 0.16075 0.15662 0.66657
 C1494 C 0.17613 0.17213 0.68187
 H1495 H 0.08029 0.13469 0.63715
 H1496 H 0.13372 0.07515 0.58334
 H1497 H 0.10261 0.04580 0.55009
 H1498 H 0.04895 0.10569 0.60417
 C1499 C 0.36569 0.33282 0.66483
 C1500 C 0.35962 0.35815 0.64039
 C1501 C 0.33563 0.36574 0.63410
 C1502 C 0.31775 0.34814 0.65215
 C1503 C 0.32362 0.32261 0.67684
 C1504 C 0.34784 0.31514 0.68295
 C1505 C 0.37796 0.37643 0.62177
 C1506 C 0.39324 0.39186 0.60614
 C1507 C 0.41112 0.41001 0.58788
 C1508 C 0.42644 0.42551 0.57241
 H1509 H 0.38421 0.32672 0.66990
 H1510 H 0.33073 0.38531 0.61523
 H1511 H 0.29934 0.35457 0.64671
 H1512 H 0.35303 0.29563 0.70168
 C1513 C 0.36542 0.16487 0.66495
 C1514 C 0.35933 0.13958 0.64054
 C1515 C 0.33536 0.13189 0.63433
 C1516 C 0.31749 0.14941 0.65243
 C1517 C 0.32339 0.17492 0.67706
 C1518 C 0.34760 0.18244 0.68311
 C1519 C 0.37766 0.12150 0.62185
 C1520 C 0.39297 0.10629 0.60618
 C1521 C 0.41091 0.08844 0.58789
 C1522 C 0.42630 0.07319 0.57240
 H1523 H 0.38395 0.17101 0.66993
 H1524 H 0.33046 0.11236 0.61548
 H1525 H 0.29908 0.14295 0.64707
 H1526 H 0.35280 0.20195 0.70179
 C1527 C 0.16380 0.37094 0.63876
 C1528 C 0.13979 0.36327 0.64486
 C1529 C 0.13364 0.33799 0.66932
 C1530 C 0.15143 0.32012 0.68735
 C1531 C 0.17568 0.32730 0.68111
 C1532 C 0.18162 0.35313 0.65673
 C1533 C 0.12150 0.38096 0.62563
 C1534 C 0.10624 0.39566 0.60935
 C1535 C 0.08836 0.41284 0.59027
 C1536 C 0.07301 0.42754 0.57414
 H1537 H 0.16876 0.39047 0.61989
 H1538 H 0.11510 0.33186 0.67426
 H1539 H 0.14618 0.30045 0.70588
 H1540 H 0.20005 0.35937 0.65122
 C1541 C 0.41423 0.11452 0.88298
 C1542 C 0.39024 0.10765 0.89010
 C1543 C 0.38426 0.08304 0.91526
 C1544 C 0.40216 0.06538 0.93326
 C1545 C 0.42637 0.07215 0.92636
 C1546 C 0.43217 0.09692 0.90092
 C1547 C 0.37181 0.12596 0.87167
 C1548 C 0.35641 0.14139 0.85624
 C1549 C 0.33838 0.15952 0.83823
 C1550 C 0.32296 0.17504 0.82296
 H1551 H 0.41908 0.13351 0.86354
 H1552 H 0.36574 0.07750 0.92099
 H1553 H 0.39701 0.04647 0.95258
 H1554 H 0.45057 0.10277 0.89483
 C1555 C 0.11568 0.41804 0.91255
 C1556 C 0.10963 0.39377 0.88718
 C1557 C 0.08566 0.38634 0.88061
 C1558 C 0.06777 0.40309 0.89932
 C1559 C 0.07362 0.42753 0.92495
 C1560 C 0.09781 0.43484 0.93131
 C1561 C 0.12800 0.37615 0.86815
 C1562 C 0.14333 0.36104 0.85238
 C1563 C 0.16125 0.34291 0.83429
 C1564 C 0.17658 0.32699 0.81930
 H1565 H 0.13420 0.42394 0.91785
 H1566 H 0.08080 0.36757 0.86105
 H1567 H 0.04936 0.39687 0.89363
 H1568 H 0.10298 0.45357 0.95074
 C1569 C 0.11499 0.08117 0.91338
 C1570 C 0.10902 0.10542 0.88796
 C1571 C 0.08507 0.11275 0.88126
 C1572 C 0.06710 0.09590 0.89980
 C1573 C 0.07275 0.07121 0.92562
 C1574 C 0.09712 0.06421 0.93204
 C1575 C 0.12745 0.12306 0.86894
 C1576 C 0.14284 0.13808 0.85316
 C1577 C 0.16086 0.15605 0.83499
 C1578 C 0.17627 0.17177 0.81989
 H1579 H 0.13351 0.07535 0.91881
 H1580 H 0.08025 0.13154 0.86165
 H1581 H 0.04879 0.10234 0.89366
 H1582 H 0.10257 0.04555 0.95144
 C1583 C 0.41414 0.38308 0.88309
 C1584 C 0.39013 0.38993 0.89001
 C1585 C 0.38400 0.41461 0.91500
 C1586 C 0.40181 0.43235 0.93305
 C1587 C 0.42605 0.42561 0.92634
 C1588 C 0.43198 0.40076 0.90108
 C1589 C 0.37179 0.37157 0.87151
 C1590 C 0.35647 0.35611 0.85604
 C1591 C 0.33852 0.33797 0.83799
 C1592 C 0.32312 0.32249 0.82271
 H1593 H 0.41908 0.36404 0.86379
 H1594 H 0.36546 0.42013 0.92056
 H1595 H 0.39657 0.45132 0.95223
 H1596 H 0.45042 0.39494 0.89515
 C1597 C 0.49847 0.03075 0.79806
 C1598 C 0.49837 -0.00122 0.78024
 C1599 C 0.49858 -0.03333 0.79791
 C1600 C 0.49895 -0.03351 0.83336
 C1601 C 0.49913 -0.00148 0.85159
 C1602 C 0.49884 0.03067 0.83349
 C1603 C 0.49823 -0.00103 0.74379
 C1604 C 0.49821 -0.00077 0.71325
 C1605 C 0.49832 -0.00044 0.67752
 C1606 C 0.49852 -0.00020 0.64698
 H1607 H 0.49831 0.05576 0.78458
 H1608 H 0.49851 -0.05823 0.78430
 H1609 H 0.49915 -0.05873 0.84644
 H1610 H 0.49895 0.05582 0.84666
 C1611 C 0.75134 0.21672 0.45243
 C1612 C 0.75127 0.24874 0.47020
 C1613 C 0.75120 0.28081 0.45246
 C1614 C 0.75112 0.28091 0.41701
 C1615 C 0.75109 0.24885 0.39883
 C1616 C 0.75126 0.21673 0.41698
 C1617 C 0.75110 0.24868 0.50665
 C1618 C 0.75088 0.24865 0.53719
 C1619 C 0.75055 0.24864 0.57293
 C1620 C 0.75022 0.24866 0.60347
 H1621 H 0.75140 0.19175 0.46596
 H1622 H 0.75114 0.30574 0.46602
 H1623 H 0.75101 0.30612 0.40391
 H1624 H 0.75127 0.19157 0.40385
 C1625 C 0.58537 0.11958 0.61401
 C1626 C 0.60930 0.11056 0.60907
 C1627 C 0.61544 0.08517 0.58478
 C1628 C 0.59769 0.06847 0.56578
 C1629 C 0.57351 0.07696 0.57088
 C1630 C 0.56759 0.10293 0.59507
 C1631 C 0.62751 0.12720 0.62911
 C1632 C 0.64275 0.14125 0.64585
 C1633 C 0.66062 0.15805 0.66511
 C1634 C 0.67596 0.17290 0.68098
 H1635 H 0.58045 0.13927 0.63271
 H1636 H 0.63393 0.07806 0.58073
 H1637 H 0.60291 0.04858 0.54747
 H1638 H 0.54919 0.11013 0.59970
 C1639 C -0.13468 0.33207 0.66355
 C1640 C -0.14073 0.35619 0.63800
 C1641 C -0.16473 0.36336 0.63128
 C1642 C -0.18262 0.34646 0.64995
 C1643 C -0.17676 0.32210 0.67570
 C1644 C -0.15253 0.31512 0.68228
 C1645 C -0.12235 0.37382 0.61887
 C1646 C -0.10698 0.38883 0.60300
 C1647 C -0.08899 0.40675 0.58474
 C1648 C -0.07359 0.42245 0.56957
 H1649 H -0.11615 0.32636 0.66901
 H1650 H -0.16963 0.38202 0.61159
 H1651 H -0.20104 0.35247 0.64411
 H1652 H -0.14733 0.29652 0.70184
 C1653 C 0.91316 0.12205 0.61107
 C1654 C 0.88923 0.11352 0.60559
 C1655 C 0.88319 0.08774 0.58165
 C1656 C 0.90105 0.07019 0.56351
 C1657 C 0.92523 0.07822 0.56915
 C1658 C 0.93106 0.10456 0.59300
 C1659 C 0.87091 0.13084 0.62497
 C1660 C 0.85561 0.14526 0.64137
 C1661 C 0.83772 0.16214 0.66058
 C1662 C 0.82239 0.17667 0.67681
 H1663 H 0.91802 0.14199 0.62955
 H1664 H 0.86469 0.08095 0.57722
 H1665 H 0.89589 0.05006 0.54541
 H1666 H 0.94945 0.11144 0.59801
 C1667 C 0.66344 0.36847 0.63636
 C1668 C 0.63947 0.36018 0.64194
 C1669 C 0.63331 0.33526 0.66673
 C1670 C 0.65108 0.31832 0.68558
 C1671 C 0.67530 0.32609 0.67984
 C1672 C 0.68124 0.35159 0.65515
 C1673 C 0.62124 0.37705 0.62200
 C1674 C 0.60603 0.39131 0.60529
 C1675 C 0.58821 0.40832 0.58601
 C1676 C 0.57292 0.42331 0.57007
 H1677 H 0.66840 0.38778 0.61728
 H1678 H 0.61479 0.32871 0.67129
 H1679 H 0.64584 0.29885 0.70432
 H1680 H 0.69966 0.35826 0.65000
 C1681 C 0.91399 0.12032 0.88634
 C1682 C 0.89004 0.11342 0.89365
 C1683 C 0.88410 0.08911 0.91907
 C1684 C 0.90204 0.07139 0.93686
 C1685 C 0.92621 0.07777 0.92941
 C1686 C 0.93197 0.10267 0.90408
 C1687 C 0.87159 0.13085 0.87466
 C1688 C 0.85615 0.14532 0.85858
 C1689 C 0.83809 0.16223 0.83974
 C1690 C 0.82265 0.17678 0.82377
 H1691 H 0.91876 0.13912 0.86669
 H1692 H 0.86560 0.08361 0.92493
 H1693 H 0.89694 0.05246 0.95620
 H1694 H 0.95035 0.10821 0.89762
 C1695 C 0.61590 0.41442 0.91607
 C1696 C 0.60979 0.38932 0.89151
 C1697 C 0.58586 0.38066 0.88619
 C1698 C 0.56804 0.39736 0.90504
 C1699 C 0.57393 0.42302 0.92953
 C1700 C 0.59811 0.43118 0.93499
 C1701 C 0.62803 0.37255 0.87161
 C1702 C 0.64325 0.35832 0.85496
 C1703 C 0.66106 0.34123 0.83582
 C1704 C 0.67633 0.32610 0.82003
 H1705 H 0.63440 0.42124 0.92041
 H1706 H 0.58096 0.36119 0.86727
 H1707 H 0.54964 0.39043 0.90010
 H1708 H 0.60330 0.45083 0.95355
 C1709 C 0.61521 0.08390 0.91754
 C1710 C 0.60914 0.10870 0.89262
 C1711 C 0.58516 0.11663 0.88679
 C1712 C 0.56727 0.09959 0.90540
 C1713 C 0.57300 0.07397 0.93035
 C1714 C 0.59741 0.06673 0.93625
 C1715 C 0.62749 0.12588 0.87286
 C1716 C 0.64277 0.14037 0.85630
 C1717 C 0.66068 0.15764 0.83712
 C1718 C 0.67601 0.17277 0.82120
 H1719 H 0.63373 0.07761 0.92237
 H1720 H 0.58023 0.13587 0.86764
 H1721 H 0.54893 0.10637 0.89975
 H1722 H 0.60293 0.04750 0.95508
 C1723 C 0.91373 0.37875 0.88721
 C1724 C 0.88973 0.38647 0.89331
 C1725 C 0.88361 0.41173 0.91777
 C1726 C 0.90143 0.42947 0.93582
 C1727 C 0.92566 0.42219 0.92963
 C1728 C 0.93158 0.39643 0.90521
 C1729 C 0.87141 0.36879 0.87417
 C1730 C 0.85611 0.35404 0.85802
 C1731 C 0.83817 0.33677 0.83914
 C1732 C 0.82279 0.32196 0.82322
 H1733 H 0.91867 0.35924 0.86834
 H1734 H 0.86508 0.41791 0.92271
 H1735 H 0.89619 0.44912 0.95436
 H1736 H 0.95001 0.39014 0.89971
 C1737 C 0.00053 0.53181 0.79951
 C1738 C 0.00063 0.49981 0.78175
 C1739 C 0.00062 0.46785 0.79965
 C1740 C 0.00045 0.46779 0.83515
 C1741 C 0.00027 0.49990 0.85362
 C1742 C 0.00037 0.53197 0.83501
 C1743 C 0.00063 0.49975 0.74515
 C1744 C 0.00056 0.49969 0.71452
 C1745 C 0.00043 0.49962 0.67864
 C1746 C 0.00026 0.49958 0.64801
 H1747 H 0.00055 0.55675 0.78590
 H1748 H 0.00070 0.44288 0.78616
 H1749 H 0.00042 0.44239 0.84794
 H1750 H 0.00027 0.55740 0.84769
 C1751 C 0.25103 0.71889 0.45183
 C1752 C 0.25113 0.75097 0.46950
 C1753 C 0.25112 0.78298 0.45166
 C1754 C 0.25095 0.78296 0.41622
 C1755 C 0.25077 0.75084 0.39814
 C1756 C 0.25087 0.71878 0.41638
 C1757 C 0.25106 0.75103 0.50595
 C1758 C 0.25092 0.75107 0.53649
 C1759 C 0.25067 0.75109 0.57223
 C1760 C 0.25039 0.75107 0.60277
 H1761 H 0.25104 0.69396 0.46544
 H1762 H 0.25119 0.80795 0.46514
 H1763 H 0.25091 0.80812 0.40303
 H1764 H 0.25076 0.69357 0.40333
 C1765 C 0.08534 0.61458 0.61912
 C1766 C 0.10935 0.60742 0.61251
 C1767 C 0.11552 0.58329 0.58706
 C1768 C 0.09774 0.56629 0.56832
 C1769 C 0.07350 0.57325 0.57480
 C1770 C 0.06753 0.59765 0.60044
 C1771 C 0.12763 0.62505 0.63168
 C1772 C 0.14290 0.64008 0.64761
 C1773 C 0.16079 0.65803 0.66591
 C1774 C 0.17613 0.67372 0.68107
 H1775 H 0.08037 0.63326 0.63873
 H1776 H 0.13407 0.57760 0.58171
 H1777 H 0.10300 0.54767 0.54885
 H1778 H 0.04909 0.60364 0.60619
 C1779 C 0.41370 0.88356 0.61649
 C1780 C 0.38973 0.89035 0.60932
 C1781 C 0.38367 0.91483 0.58412
 C1782 C 0.40153 0.93254 0.56613
 C1783 C 0.42573 0.92595 0.57315
 C1784 C 0.43159 0.90121 0.59857
 C1785 C 0.37139 0.87218 0.62787
 C1786 C 0.35606 0.85690 0.64346
 C1787 C 0.33814 0.83900 0.66169
 C1788 C 0.32278 0.82370 0.67718
 H1789 H 0.41856 0.86464 0.63597
 H1790 H 0.36514 0.92025 0.57839
 H1791 H 0.39635 0.95140 0.54678
 H1792 H 0.45000 0.89548 0.60469
 C1793 C 0.36538 0.66464 0.66517
 C1794 C 0.35925 0.64016 0.64003
 C1795 C 0.33524 0.63363 0.63289
 C1796 C 0.31740 0.65148 0.65078
 C1797 C 0.32334 0.67619 0.67616
 C1798 C 0.34757 0.68255 0.68312
 C1799 C 0.37757 0.62171 0.62153
 C1800 C 0.39288 0.60622 0.60602
 C1801 C 0.41081 0.58808 0.58788
 C1802 C 0.42620 0.57264 0.57248
 H1803 H 0.38393 0.66989 0.67090
 H1804 H 0.33029 0.61474 0.61347
 H1805 H 0.29897 0.64591 0.64468
 H1806 H 0.35282 0.70135 0.70243
 C1807 C 0.08541 0.88584 0.61815
 C1808 C 0.10935 0.89423 0.61244
 C1809 C 0.11538 0.91934 0.58776
 C1810 C 0.09753 0.93606 0.56888
 C1811 C 0.07335 0.92783 0.57443
 C1812 C 0.06752 0.90250 0.59933
 C1813 C 0.12772 0.87678 0.63168
 C1814 C 0.14304 0.86186 0.64763
 C1815 C 0.16098 0.84397 0.66596
 C1816 C 0.17633 0.82825 0.68113
 H1817 H 0.08055 0.86639 0.63716
 H1818 H 0.13387 0.92600 0.58311
 H1819 H 0.10268 0.95549 0.55005
 H1820 H 0.04914 0.89552 0.60435
 C1821 C 0.41383 0.61594 0.88273
 C1822 C 0.38983 0.60894 0.88958
 C1823 C 0.38376 0.58421 0.91459
 C1824 C 0.40160 0.56656 0.93272
 C1825 C 0.42583 0.57345 0.92608
 C1826 C 0.43171 0.59836 0.90080
 C1827 C 0.37146 0.62723 0.87100
 C1828 C 0.35614 0.64266 0.85545
 C1829 C 0.33820 0.66082 0.83730
 C1830 C 0.32283 0.67635 0.82193
 H1831 H 0.41875 0.63502 0.86342
 H1832 H 0.36522 0.57857 0.92010
 H1833 H 0.39639 0.54754 0.95191
 H1834 H 0.45013 0.60431 0.89492
 C1835 C 0.11513 0.91832 0.91327
 C1836 C 0.10919 0.89412 0.88784
 C1837 C 0.08524 0.88675 0.88118
 C1838 C 0.06726 0.90350 0.89977
 C1839 C 0.07287 0.92815 0.92559
 C1840 C 0.09724 0.93519 0.93197
 C1841 C 0.12765 0.87658 0.86873
 C1842 C 0.14305 0.86163 0.85285
 C1843 C 0.16105 0.84374 0.83454
 C1844 C 0.17643 0.82804 0.81931
 H1845 H 0.13364 0.92419 0.91867
 H1846 H 0.08043 0.86800 0.86157
 H1847 H 0.04895 0.89703 0.89365
 H1848 H 0.10267 0.95381 0.95138
 C1849 C 0.11554 0.58322 0.91299
 C1850 C 0.10945 0.60686 0.88707
 C1851 C 0.08546 0.61372 0.88003
 C1852 C 0.06759 0.59698 0.89880
 C1853 C 0.07349 0.57311 0.92495
 C1854 C 0.09770 0.56642 0.93182
 C1855 C 0.12778 0.62439 0.86789
 C1856 C 0.14309 0.63939 0.85200
 C1857 C 0.16099 0.65736 0.83375
 C1858 C 0.17633 0.67313 0.81863
 H1859 H 0.13407 0.57778 0.91866
 H1860 H 0.08057 0.63202 0.86003
 H1861 H 0.04917 0.60271 0.89272
 H1862 H 0.10291 0.54817 0.95169
 C1863 C 0.41437 0.88312 0.88263
 C1864 C 0.39039 0.88946 0.89024
 C1865 C 0.38440 0.91330 0.91601
 C1866 C 0.40229 0.93078 0.93412
 C1867 C 0.42650 0.92461 0.92667
 C1868 C 0.43231 0.90054 0.90068
 C1869 C 0.37197 0.87147 0.87160
 C1870 C 0.35656 0.85636 0.85599
 C1871 C 0.33852 0.83862 0.83777
 C1872 C 0.32307 0.82343 0.82232
 H1873 H 0.41921 0.86472 0.86272
 H1874 H 0.36588 0.91841 0.92212
 H1875 H 0.39714 0.94912 0.95391
 H1876 H 0.45071 0.89518 0.89418
 C1877 C 0.49835 0.53129 0.79786
 C1878 C 0.49824 0.49921 0.78021
 C1879 C 0.49837 0.46720 0.79805
 C1880 C 0.49867 0.46723 0.83349
 C1881 C 0.49886 0.49936 0.85155
 C1882 C 0.49865 0.53142 0.83330
 C1883 C 0.49814 0.49913 0.74377
 C1884 C 0.49816 0.49909 0.71324
 C1885 C 0.49829 0.49907 0.67752
 C1886 C 0.49850 0.49908 0.64699
 H1887 H 0.49826 0.55621 0.78424
 H1888 H 0.49829 0.44222 0.78457
 H1889 H 0.49880 0.44208 0.84668
 H1890 H 0.49876 0.55663 0.84634
 C1891 C 0.75089 0.71895 0.45191
 C1892 C 0.75095 0.75104 0.46956
 C1893 C 0.75091 0.78304 0.45169
 C1894 C 0.75074 0.78299 0.41625
 C1895 C 0.75060 0.75085 0.39820
 C1896 C 0.75072 0.71881 0.41647
 C1897 C 0.75088 0.75112 0.50601
 C1898 C 0.75074 0.75114 0.53655
 C1899 C 0.75048 0.75110 0.57229
 C1900 C 0.75021 0.75102 0.60282
 H1901 H 0.75092 0.69403 0.46554
 H1902 H 0.75095 0.80802 0.46516
 H1903 H 0.75067 0.80814 0.40304
 H1904 H 0.75064 0.69359 0.40343
 C1905 C 0.58524 0.61904 0.61434
 C1906 C 0.60924 0.61101 0.60862
 C1907 C 0.61543 0.58622 0.58378
 C1908 C 0.59769 0.56917 0.56501
 C1909 C 0.57344 0.57669 0.57087
 C1910 C 0.56746 0.60205 0.59563
 C1911 C 0.62749 0.62804 0.62843
 C1912 C 0.64273 0.64238 0.64500
 C1913 C 0.66062 0.65946 0.66411
 C1914 C 0.67596 0.67446 0.67993
 H1915 H 0.58025 0.63825 0.63347
 H1916 H 0.63397 0.57985 0.57909
 H1917 H 0.60297 0.54981 0.54621
 H1918 H 0.54902 0.60852 0.60088
 C1919 C 0.91334 0.87857 0.61122
 C1920 C 0.88938 0.88688 0.60557
 C1921 C 0.88332 0.91264 0.58156
 C1922 C 0.90116 0.93035 0.56351
 C1923 C 0.92536 0.92252 0.56929
 C1924 C 0.93122 0.89622 0.59323
 C1925 C 0.87106 0.86935 0.62482
 C1926 C 0.85576 0.85475 0.64109
 C1927 C 0.83785 0.83767 0.66016
 C1928 C 0.82251 0.82300 0.67628
 H1929 H 0.91822 0.85865 0.62975
 H1930 H 0.86480 0.91927 0.57700
 H1931 H 0.89597 0.95043 0.54534
 H1932 H 0.94962 0.88948 0.59836
 C1933 C 0.91351 0.62170 0.61192
 C1934 C 0.88953 0.61396 0.60571
 C1935 C 0.88349 0.58862 0.58133
 C1936 C 0.90136 0.57076 0.56348
 C1937 C 0.92557 0.57801 0.56982
 C1938 C 0.93141 0.60390 0.59411
 C1939 C 0.87116 0.63161 0.62478
 C1940 C 0.85582 0.64627 0.64093
 C1941 C 0.83787 0.66340 0.65989
 C1942 C 0.82250 0.67808 0.67596
 H1943 H 0.91838 0.64129 0.63074
 H1944 H 0.86497 0.58243 0.57633
 H1945 H 0.89618 0.55103 0.54499
 H1946 H 0.94982 0.61019 0.59969
 C1947 C 0.58552 0.88050 0.61376
 C1948 C 0.60943 0.88959 0.60881
 C1949 C 0.61554 0.91508 0.58457
 C1950 C 0.59777 0.93183 0.56562
 C1951 C 0.57360 0.92327 0.57073
 C1952 C 0.56771 0.89720 0.59487
 C1953 C 0.62766 0.87290 0.62879
 C1954 C 0.64290 0.85879 0.64547
 C1955 C 0.66077 0.84190 0.66465
 C1956 C 0.67611 0.82694 0.68047
 H1957 H 0.58063 0.86072 0.63243
 H1958 H 0.63402 0.92224 0.58052
 H1959 H 0.60296 0.95181 0.54734
 H1960 H 0.54933 0.88995 0.59951
 C1961 C 0.91358 0.62089 0.88685
 C1962 C 0.88959 0.61376 0.89364
 C1963 C 0.88351 0.58921 0.91880
 C1964 C 0.90136 0.57152 0.93686
 C1965 C 0.92557 0.57816 0.92993
 C1966 C 0.93146 0.60327 0.90485
 C1967 C 0.87125 0.63124 0.87439
 C1968 C 0.85596 0.64581 0.85809
 C1969 C 0.83806 0.66289 0.83900
 C1970 C 0.82271 0.67757 0.82290
 H1971 H 0.91847 0.63986 0.86742
 H1972 H 0.86498 0.58351 0.92427
 H1973 H 0.89616 0.55242 0.95597
 H1974 H 0.94987 0.60904 0.89877
 C1975 C 0.61530 0.91394 0.91757
 C1976 C 0.60927 0.88926 0.89260
 C1977 C 0.58533 0.88105 0.88689
 C1978 C 0.56741 0.89778 0.90563
 C1979 C 0.57309 0.92335 0.93059
 C1980 C 0.59747 0.93080 0.93642
 C1981 C 0.62763 0.87249 0.87265
 C1982 C 0.64293 0.85835 0.85593
 C1983 C 0.66084 0.84145 0.83658
 C1984 C 0.67618 0.82654 0.82056
 H1985 H 0.63381 0.92041 0.92230
 H1986 H 0.58045 0.86186 0.86770
 H1987 H 0.54910 0.89084 0.90006
 H1988 H 0.60296 0.95001 0.95527
 C1989 C 0.61578 0.58656 0.91696
 C1990 C 0.60965 0.61083 0.89159
 C1991 C 0.58568 0.61864 0.88547
 C1992 C 0.56784 0.60189 0.90430
 C1993 C 0.57376 0.57701 0.92956
 C1994 C 0.59798 0.56974 0.93584
 C1995 C 0.62792 0.62754 0.87164
 C1996 C 0.64317 0.64169 0.85493
 C1997 C 0.66101 0.65863 0.83567
 C1998 C 0.67631 0.67364 0.81976
 H1999 H 0.63431 0.58040 0.92194
 H2000 H 0.58075 0.63745 0.86592
 H2001 H 0.54942 0.60811 0.89870
 H2002 H 0.60320 0.55076 0.95505
 C2003 C 0.91410 0.87895 0.88607
 C2004 C 0.89014 0.88585 0.89327
 C2005 C 0.88416 0.91014 0.91866
 C2006 C 0.90208 0.92780 0.93655
 C2007 C 0.92627 0.92141 0.92922
 C2008 C 0.93206 0.89655 0.90391
 C2009 C 0.87170 0.86844 0.87419
 C2010 C 0.85628 0.85398 0.85807
 C2011 C 0.83823 0.83707 0.83917
 C2012 C 0.82279 0.82253 0.82317
 H2013 H 0.91892 0.86019 0.86646
 H2014 H 0.86565 0.91565 0.92445
 H2015 H 0.89694 0.94669 0.95586
 H2016 H 0.95045 0.89099 0.89753
   
