data_POSCAR
  _audit_creation_date              2014-09-24
  _audit_creation_method            'ToBaCCo'
  _symmetry_space_group_name_H-M    'P1'
  _symmetry_Int_Tables_number       1
  _symmetry_cell_setting            triclinic
  loop_
  _symmetry_equiv_pos_as_xyz
 x,y,z
_cell_length_a 45.3567
_cell_length_b 45.8861
_cell_length_c 44.9062
_cell_angle_alpha 87.829000
_cell_angle_beta 88.759700
_cell_angle_gamma 89.346100
loop_
  _atom_site_label
  _atom_site_type_symbol
  _atom_site_fract_x
  _atom_site_fract_y
  _atom_site_fract_z
C1 C 0.79317 0.64353 1.00880
 C2 C 0.79877 0.62245 0.98338
 C3 C 0.77471 0.60674 0.97641
 C4 C 0.74715 0.61319 0.99566
 C5 C 0.76662 0.66207 0.99823
 C6 C 0.74256 0.64628 0.99128
 C7 C 0.78104 0.62419 1.03463
 C8 C 0.75702 0.60861 1.02799
 H9 H 0.81825 0.62254 0.96915
 H10 H 0.72788 0.59986 0.99015
 H11 H 0.76741 0.68559 0.99542
 H12 H 0.78970 0.62422 1.05694
 C13 C 0.79029 0.35323 0.47952
 C14 C 0.79649 0.37727 0.50114
 C15 C 0.77296 0.39491 0.50706
 C16 C 0.74507 0.38730 0.49009
 C17 C 0.76334 0.33733 0.49371
 C18 C 0.73931 0.35497 0.49890
 C19 C 0.77809 0.36911 0.45181
 C20 C 0.75459 0.38684 0.45707
 H21 H 0.81684 0.37811 0.51327
 H22 H 0.72642 0.40257 0.49388
 H23 H 0.76362 0.31464 0.50064
 H24 H 0.78677 0.36556 0.42955
 C25 C 0.29325 -0.14365 -0.03956
 C26 C 0.30204 -0.12618 -0.01509
 C27 C 0.27941 -0.10769 -0.00337
 C28 C 0.25172 -0.10991 -0.01944
 C29 C 0.26734 -0.15965 -0.02821
 C30 C 0.24397 -0.14103 -0.01734
 C31 C 0.28141 -0.12308 -0.06188
 C32 C 0.25884 -0.10360 -0.05116
 H33 H 0.32458 -0.12618 -0.00758
 H34 H 0.23451 -0.09614 -0.00966
 H35 H 0.26358 -0.18235 -0.03227
 H36 H 0.28654 -0.12571 -0.08523
 C37 C 0.29471 0.14343 0.48542
 C38 C 0.29582 0.11951 0.46253
 C39 C 0.26909 0.10836 0.45640
 C40 C 0.24344 0.12166 0.47423
 C41 C 0.27252 0.16607 0.47252
 C42 C 0.24566 0.15459 0.46692
 C43 C 0.27853 0.12983 0.51267
 C44 C 0.25200 0.11782 0.50716
 H45 H 0.31553 0.11466 0.44948
 H46 H 0.22198 0.11215 0.46868
 H47 H 0.27730 0.18873 0.46744
 H48 H 0.28719 0.13129 0.53482
 C49 C 0.15511 0.50975 0.28474
 C50 C 0.13049 0.48702 0.28780
 C51 C 0.11731 0.48142 0.26169
 C52 C 0.12968 0.49941 0.23477
 C53 C 0.17608 0.49732 0.26085
 C54 C 0.16281 0.49205 0.23469
 C55 C 0.14071 0.53653 0.26974
 C56 C 0.12721 0.53141 0.24376
 H57 H 0.12704 0.47329 0.30769
 H58 H 0.11862 0.49475 0.21368
 H59 H 0.19861 0.49066 0.26513
 H60 H 0.14198 0.55802 0.27879
 C61 C -0.13076 -0.02553 0.29612
 C62 C -0.11179 0.00125 0.30087
 C63 C -0.09551 0.01020 0.27653
 C64 C -0.09960 -0.00857 0.24929
 C65 C -0.14946 -0.01624 0.26897
 C66 C -0.13315 -0.00733 0.24443
 C67 C -0.11053 -0.04753 0.28508
 C68 C -0.09347 -0.03880 0.25908
 H69 H -0.11276 0.01330 0.32117
 H70 H -0.08684 -0.00027 0.22952
 H71 H -0.17322 -0.01612 0.26875
 H72 H -0.10831 -0.06868 0.29635
 C73 C 0.36238 0.46324 0.78232
 C74 C 0.38256 0.48814 0.79032
 C75 C 0.40081 0.49773 0.76772
 C76 C 0.39762 0.48126 0.73889
 C77 C 0.34634 0.47498 0.75430
 C78 C 0.36474 0.48469 0.73171
 C79 C 0.38313 0.43955 0.77044
 C80 C 0.40152 0.44874 0.74774
 H81 H 0.38103 0.49860 0.81154
 H82 H 0.41291 0.48889 0.72068
 H83 H 0.32272 0.47666 0.75249
 H84 H 0.38119 0.41678 0.77742
 C85 C 0.64596 1.00294 0.79830
 C86 C 0.62771 0.97535 0.80392
 C87 C 0.60917 0.96949 0.78157
 C88 C 0.61040 0.99217 0.75535
 C89 C 0.66191 0.99760 0.76827
 C90 C 0.64326 0.99195 0.74572
 C91 C 0.62476 1.02598 0.79188
 C92 C 0.60510 1.02082 0.76810
 H93 H 0.63117 0.96031 0.82274
 H94 H 0.59543 0.98615 0.73751
 H95 H 0.68559 0.99599 0.76548
 H96 H 0.62719 1.04704 0.80150
 C97 C -0.02800 0.28802 -0.14090
 C98 C -0.00241 0.29323 -0.12008
 C99 C 0.00592 0.26945 -0.10339
 C100 C -0.01182 0.24211 -0.10910
 C101 C -0.01700 0.26227 -0.15960
 C102 C -0.00837 0.23809 -0.14295
 C103 C -0.05251 0.27506 -0.12070
 C104 C -0.04428 0.25100 -0.10432
 H105 H 0.00942 0.31362 -0.12003
 H106 H -0.00494 0.22348 -0.09440
 H107 H -0.01592 0.26308 -0.18361
 H108 H -0.07516 0.28278 -0.12138
 C109 C 0.50253 0.30115 0.14837
 C110 C 0.48048 0.30643 0.12313
 C111 C 0.47449 0.28207 0.10805
 C112 C 0.49123 0.25466 0.11917
 C113 C 0.48880 0.27620 0.16768
 C114 C 0.48312 0.25191 0.15243
 C115 C 0.52953 0.28749 0.13297
 C116 C 0.52402 0.26293 0.11802
 H117 H 0.46735 0.32603 0.11995
 H118 H 0.48568 0.23499 0.10693
 H119 H 0.48361 0.27790 0.19121
 H120 H 0.55112 0.29721 0.13363
 C121 C 1.00477 0.79503 0.66046
 C122 C 0.97835 0.79983 0.64305
 C123 C 0.97057 0.77574 0.62556
 C124 C 0.99104 0.75091 0.62902
 C125 C 0.99807 0.76862 0.67848
 C126 C 0.99050 0.74392 0.66132
 C127 C 1.02765 0.78653 0.63929
 C128 C 1.02090 0.76172 0.62233
 H129 H 0.96363 0.81829 0.64579
 H130 H 0.98437 0.73259 0.61554
 H131 H 0.99795 0.76801 0.70258
 H132 H 1.04807 0.79844 0.63645
 C133 C 0.46748 0.79514 0.36888
 C134 C 0.49290 0.80040 0.39010
 C135 C 0.50267 0.77586 0.40492
 C136 C 0.48606 0.74815 0.39761
 C137 C 0.47913 0.77111 0.34877
 C138 C 0.48922 0.74646 0.36342
 C139 C 0.44394 0.78024 0.38879
 C140 C 0.45327 0.75559 0.40368
 H141 H 0.50345 0.82107 0.39268
 H142 H 0.49401 0.72888 0.41080
 H143 H 0.47872 0.77380 0.32477
 H144 H 0.42128 0.78791 0.38972
 C145 C 0.39889 -0.00928 0.27198
 H146 H 0.39496 0.01197 0.28101
 C147 C 0.41397 -0.03074 0.28867
 H148 H 0.42157 -0.02582 0.31059
 C149 C 0.39182 -0.04206 0.23329
 H150 H 0.38246 -0.04672 0.21212
 C151 C 0.40682 -0.06410 0.24916
 H152 H 0.40945 -0.08531 0.23959
 N153 N 0.38796 -0.01533 0.24496
 C154 C 0.37115 0.06958 0.20112
 H155 H 0.34791 0.06800 0.19654
 C156 C 0.38643 0.09488 0.19261
 H157 H 0.37489 0.11285 0.18150
 C158 C 0.41471 0.04778 0.22043
 H159 H 0.42573 0.02926 0.23098
 C160 C 0.43096 0.07245 0.21178
 H161 H 0.45436 0.07291 0.21606
 Zn162 Zn 0.36340 0.01319 0.22623
 N163 N 0.38528 0.04692 0.21530
 C164 C 0.32799 0.04928 0.26296
 N165 N 0.33342 0.02150 0.25465
 C166 C 0.32188 -0.00175 0.27041
 C167 C 0.30612 0.00238 0.29701
 C168 C 0.31175 0.05440 0.28899
 C169 C 0.36840 -0.00618 0.16911
 C170 C 0.36035 -0.01996 0.14351
 C171 C 0.31024 -0.02242 0.16289
 C172 C 0.31936 -0.00875 0.18844
 N173 N 0.34820 -0.00168 0.19128
 H174 H 0.33788 0.06745 0.25072
 H175 H 0.32698 -0.02363 0.26359
 H176 H 0.29890 -0.01637 0.31051
 H177 H 0.30926 0.07654 0.29631
 H178 H 0.39110 -0.00008 0.17195
 H179 H 0.37695 -0.02435 0.12650
 H180 H 0.28753 -0.02910 0.16125
 H181 H 0.30370 -0.00472 0.20635
 C182 C 0.41671 0.09643 0.19794
 C183 C 0.41764 -0.05875 0.27749
 C184 C 0.33113 -0.02886 0.14051
 C185 C 0.30178 0.03072 0.30697
 C186 C 0.10269 1.06563 0.78304
 H187 H 0.11710 1.05380 0.79814
 C188 C 0.08812 1.09062 0.79249
 H189 H 0.09142 1.09767 0.81491
 C190 C 0.08205 1.07174 0.73513
 H191 H 0.08020 1.06434 0.71266
 C192 C 0.06715 1.09705 0.74363
 H193 H 0.05338 1.10883 0.72776
 N194 N 0.09928 1.05657 0.75487
 C195 C 0.11067 0.96715 0.72777
 H196 H 0.13441 0.96563 0.72935
 C197 C 0.09471 0.94292 0.72001
 H198 H 0.10636 0.92282 0.71529
 C199 C 0.06685 0.99563 0.73111
 H200 H 0.05615 1.01622 0.73555
 C201 C 0.05001 0.97195 0.72305
 H202 H 0.02634 0.97447 0.72127
 Zn203 Zn 0.12121 1.02412 0.74178
 N204 N 0.09666 0.99290 0.73277
 C205 C 0.13429 0.99641 0.79640
 N206 N 0.14683 1.01013 0.77200
 C207 C 0.17661 1.01228 0.76881
 C208 C 0.19501 1.00053 0.79078
 C209 C 0.15188 0.98400 0.81874
 C210 C 0.13873 1.02322 0.68092
 C211 C 0.15477 1.03223 0.65541
 C212 C 0.17847 1.06832 0.68431
 C213 C 0.16157 1.05900 0.70911
 N214 N 0.14276 1.03633 0.70720
 H215 H 0.11055 0.99461 0.79816
 H216 H 0.18631 1.02271 0.74908
 H217 H 0.21864 1.00274 0.78784
 H218 H 0.14141 0.97234 0.83745
 H219 H 0.12309 1.00576 0.67966
 H220 H 0.15171 1.02140 0.63471
 H221 H 0.19378 1.08606 0.68623
 H222 H 0.16374 1.06954 0.73008
 C223 C 0.06404 0.94526 0.71720
 C224 C 0.07007 1.10667 0.77270
 C225 C 0.17523 1.05472 0.65715
 C226 C 0.18273 0.98578 0.81601
 C227 C 0.56866 0.54709 0.29515
 H228 H 0.56393 0.52458 0.30129
 C229 C 0.55345 0.56950 0.30931
 H230 H 0.53643 0.56388 0.32572
 C231 C 0.59666 0.58145 0.26619
 H232 H 0.61406 0.58599 0.24991
 C233 C 0.58253 0.60448 0.28024
 H234 H 0.58950 0.62649 0.27453
 N235 N 0.58950 0.55342 0.27374
 C236 C 0.60184 0.47110 0.22992
 H237 H 0.62569 0.47050 0.22990
 C238 C 0.58646 0.44835 0.21806
 H239 H 0.59860 0.43024 0.20879
 C240 C 0.55714 0.49595 0.24139
 H241 H 0.54589 0.51481 0.25005
 C242 C 0.54081 0.47376 0.22926
 H243 H 0.51697 0.47538 0.22909
 Zn244 Zn 0.61156 0.52292 0.25671
 N245 N 0.58710 0.49397 0.24187
 C246 C 0.62978 0.47874 0.29779
 N247 N 0.63561 0.50627 0.28714
 C248 C 0.65635 0.52273 0.29983
 C249 C 0.67260 0.51131 0.32384
 C250 C 0.64550 0.46650 0.32155
 C251 C 0.61636 0.54778 0.20037
 C252 C 0.62923 0.55821 0.17368
 C253 C 0.67719 0.54778 0.19415
 C254 C 0.66330 0.53729 0.22055
 N255 N 0.63337 0.53770 0.22316
 H256 H 0.61232 0.46640 0.28849
 H257 H 0.66002 0.54486 0.29153
 H258 H 0.68922 0.52458 0.33352
 H259 H 0.64013 0.44470 0.32988
 H260 H 0.59259 0.54741 0.20292
 H261 H 0.61509 0.56560 0.15574
 H262 H 0.70104 0.54778 0.19259
 H263 H 0.67640 0.52875 0.23877
 C264 C 0.55558 0.44945 0.21777
 C265 C 0.56044 0.59876 0.30210
 C266 C 0.66006 0.55848 0.17024
 C267 C 0.66729 0.48275 0.33489
 C268 C 0.87444 0.46558 0.77111
 H269 H 0.85896 0.47646 0.78560
 C270 C 0.88737 0.43960 0.78127
 H271 H 0.88144 0.43110 0.80338
 C272 C 0.89899 0.46228 0.72429
 H273 H 0.90283 0.47094 0.70183
 C274 C 0.91288 0.43618 0.73380
 H275 H 0.92798 0.42533 0.71875
 N276 N 0.88078 0.47683 0.74329
 C277 C 0.87683 0.56977 0.72008
 H278 H 0.85394 0.57316 0.72644
 C279 C 0.89424 0.59358 0.71164
 H280 H 0.88459 0.61528 0.71138
 C281 C 0.91701 0.53725 0.71229
 H282 H 0.92589 0.51533 0.71287
 C283 C 0.93516 0.56053 0.70314
 H284 H 0.95790 0.55636 0.69663
 Zn285 Zn 0.86128 0.51243 0.73203
 N286 N 0.88828 0.54224 0.72014
 C287 C 0.85981 0.53679 0.78622
 N288 N 0.84106 0.52565 0.76651
 C289 C 0.81200 0.52169 0.77363
 C290 C 0.80117 0.52818 0.80224
 C291 C 0.85003 0.54353 0.81465
 C292 C 0.83867 0.52326 0.67482
 C293 C 0.82749 0.51480 0.64784
 C294 C 0.81059 0.47017 0.67244
 C295 C 0.82205 0.47957 0.69911
 N296 N 0.83663 0.50529 0.69957
 H297 H 0.88289 0.53928 0.78021
 H298 H 0.79760 0.51236 0.75771
 H299 H 0.77830 0.52403 0.80820
 H300 H 0.86561 0.55201 0.82999
 H301 H 0.85056 0.54345 0.67535
 H302 H 0.83046 0.52892 0.62815
 H303 H 0.80085 0.44876 0.67200
 H304 H 0.82126 0.46537 0.71890
 C305 C 0.92372 0.58909 0.70286
 C306 C 0.90743 0.42478 0.76289
 C307 C 0.81436 0.48742 0.64610
 C308 C 0.82063 0.53846 0.82337
 C309 C 0.28496 0.37886 -0.01466
 H310 H 0.29373 0.37773 0.00758
 C311 C 0.30138 0.39180 -0.03813
 H312 H 0.32258 0.40113 -0.03365
 C313 C 0.24680 0.36760 -0.04743
 H314 H 0.22593 0.35740 -0.05115
 C315 C 0.26252 0.38026 -0.07155
 H316 H 0.25342 0.37970 -0.09361
 N317 N 0.25814 0.36721 -0.01962
 C318 C 0.21321 0.36325 0.06725
 H319 H 0.20645 0.34070 0.06832
 C320 C 0.20522 0.38148 0.09030
 H321 H 0.19247 0.37280 0.10922
 C322 C 0.23684 0.40232 0.04064
 H323 H 0.24871 0.41052 0.02105
 C324 C 0.22885 0.42145 0.06298
 H325 H 0.23507 0.44415 0.06063
 Zn326 Zn 0.23866 0.34743 0.01284
 N327 N 0.22931 0.37369 0.04334
 C328 C 0.26987 0.31318 0.05631
 N329 N 0.26502 0.31781 0.02670
 C330 C 0.28292 0.30556 0.00579
 C331 C 0.30814 0.28990 0.01431
 C332 C 0.29440 0.29703 0.06581
 C333 C 0.18242 0.35292 -0.00800
 C334 C 0.15456 0.34479 -0.01673
 C335 C 0.16834 0.29430 -0.00723
 C336 C 0.19625 0.30347 0.00116
 N337 N 0.20263 0.33238 0.00051
 H338 H 0.25593 0.32343 0.07268
 H339 H 0.27885 0.30986 -0.01762
 H340 H 0.32336 0.28206 -0.00257
 H341 H 0.29893 0.29504 0.08939
 H342 H 0.18812 0.37575 -0.00810
 H343 H 0.13920 0.36163 -0.02414
 H344 H 0.16339 0.27126 -0.00628
 H345 H 0.21265 0.28760 0.00841
 C346 C 0.21308 0.41095 0.08829
 C347 C 0.29028 0.39246 -0.06710
 C348 C 0.14701 0.31517 -0.01621
 C349 C 0.31449 0.28631 0.04464
 C350 C 0.76684 0.06881 1.05749
 H351 H 0.76530 0.05719 1.03716
 C352 C 0.77776 0.05438 1.08306
 H353 H 0.78445 0.03170 1.08215
 C354 C 0.75968 0.11217 1.08384
 H355 H 0.75248 0.13470 1.08411
 C356 C 0.77020 0.09861 1.10982
 H357 H 0.77144 0.11104 1.12977
 N358 N 0.75834 0.09733 1.05827
 C359 C 0.70039 0.09779 0.98772
 H360 H 0.68647 0.11365 0.99841
 C361 C 0.68860 0.08126 0.96558
 H362 H 0.66572 0.08456 0.95977
 C363 C 0.74724 0.07543 0.98085
 H364 H 0.77027 0.07373 0.98650
 C365 C 0.73638 0.05865 0.95817
 H366 H 0.75100 0.04369 0.94682
 Zn367 Zn 0.74402 0.11910 1.02471
 N368 N 0.72918 0.09455 0.99519
 C369 C 0.78160 0.14202 0.97845
 N370 N 0.77497 0.14251 1.00812
 C371 C 0.79019 0.15966 1.02638
 C372 C 0.81324 0.17697 1.01501
 C373 C 0.80469 0.15873 0.96623
 C374 C 0.69029 0.13049 1.05415
 C375 C 0.66702 0.14730 1.06529
 C376 C 0.69168 0.19059 1.04570
 C377 C 0.71415 0.17290 1.03428
 N378 N 0.71310 0.14343 1.03876
 H379 H 0.76891 0.12884 0.96412
 H380 H 0.78441 0.16001 1.04981
 H381 H 0.82530 0.19027 1.02990
 H382 H 0.80962 0.15813 0.94255
 H383 H 0.69018 0.10703 1.05762
 H384 H 0.64894 0.13682 1.07747
 H385 H 0.69281 0.21405 1.04234
 H386 H 0.73245 0.18275 1.02200
 C387 C 0.70663 0.06143 0.95045
 C388 C 0.77950 0.06936 1.10966
 C389 C 0.66778 0.17769 1.06124
 C390 C 0.82087 0.17642 0.98461
 C391 C 0.26797 0.60800 0.57364
 H392 H 0.26995 0.63137 0.57400
 C393 C 0.28061 0.59066 0.59623
 H394 H 0.29206 0.60106 0.61381
 C395 C 0.24957 0.56623 0.55118
 H396 H 0.23715 0.55674 0.53381
 C397 C 0.26197 0.54804 0.57332
 H398 H 0.25940 0.52467 0.57236
 N399 N 0.25301 0.59565 0.55150
 C400 C 0.19265 0.60021 0.48349
 H401 H 0.17842 0.61489 0.49549
 C402 C 0.18115 0.58475 0.46034
 H403 H 0.15834 0.58830 0.45442
 C404 C 0.23950 0.57797 0.47629
 H405 H 0.26221 0.57524 0.48285
 C406 C 0.22893 0.56211 0.45291
 H407 H 0.24364 0.54725 0.44153
 Zn408 Zn 0.23717 0.62037 0.52069
 N409 N 0.22158 0.59720 0.49055
 C410 C 0.28055 0.64025 0.47755
 N411 N 0.26768 0.64496 0.50464
 C412 C 0.27671 0.66713 0.52144
 C413 C 0.30032 0.68464 0.51185
 C414 C 0.30431 0.65714 0.46717
 C415 C 0.19757 0.64001 0.56546
 C416 C 0.17511 0.65741 0.57730
 C417 C 0.17129 0.68282 0.52938
 C418 C 0.19430 0.66535 0.51860
 N419 N 0.20673 0.64426 0.53659
 H420 H 0.27269 0.62333 0.46386
 H421 H 0.26555 0.67127 0.54239
 H422 H 0.30752 0.70176 0.52587
 H423 H 0.31426 0.65296 0.44559
 H424 H 0.20759 0.62308 0.57935
 H425 H 0.16814 0.65404 0.60039
 H426 H 0.16146 0.69950 0.51493
 H427 H 0.20211 0.66835 0.49577
 C428 C 0.19948 0.56577 0.44438
 C429 C 0.27791 0.56022 0.59616
 C430 C 0.16166 0.67892 0.55909
 C431 C 0.31473 0.67944 0.48456
 C432 C 0.76640 0.90488 0.48805
 H433 H 0.77347 0.91047 0.50990
 C434 C 0.77813 0.91971 0.46281
 H435 H 0.79394 0.93685 0.46555
 C436 C 0.73761 0.87558 0.45780
 H437 H 0.72257 0.85771 0.45582
 C438 C 0.74873 0.88984 0.43205
 H439 H 0.74194 0.88279 0.41052
 N440 N 0.74650 0.88324 0.48515
 C441 C 0.71540 0.86811 0.57670
 H442 H 0.71727 0.84457 0.57694
 C443 C 0.70839 0.88210 0.60291
 H444 H 0.70454 0.86918 0.62328
 C445 C 0.71837 0.91342 0.54968
 H446 H 0.72236 0.92544 0.52885
 C447 C 0.71099 0.92839 0.57550
 H448 H 0.70957 0.95198 0.57448
 Zn449 Zn 0.73306 0.86051 0.51892
 N450 N 0.72084 0.88381 0.55095
 C451 C 0.78374 0.85495 0.54888
 N452 N 0.76579 0.83799 0.53319
 C453 C 0.77232 0.80922 0.52957
 C454 C 0.79697 0.79632 0.54358
 C455 C 0.80821 0.84315 0.56301
 C456 C 0.67760 0.85988 0.49944
 C457 C 0.64994 0.85065 0.49139
 C458 C 0.66517 0.80095 0.50273
 C459 C 0.69287 0.81125 0.51071
 N460 N 0.69857 0.84037 0.50862
 H461 H 0.77862 0.87781 0.55113
 H462 H 0.75865 0.79623 0.51599
 H463 H 0.80164 0.77331 0.54135
 H464 H 0.82177 0.85722 0.57574
 H465 H 0.68255 0.88291 0.49828
 H466 H 0.63401 0.86677 0.48356
 H467 H 0.66075 0.77781 0.50460
 H468 H 0.70931 0.79605 0.51899
 C469 C 0.70649 0.91261 0.60263
 C470 C 0.76948 0.91205 0.43431
 C471 C 0.64324 0.82088 0.49311
 C472 C 0.81472 0.81337 0.56121
 C473 C -0.01100 0.28583 0.38737
 H474 H 0.01058 0.29547 0.38441
 C475 C -0.03258 0.29954 0.40463
 H476 H -0.02714 0.31944 0.41538
 C477 C -0.04410 0.24830 0.37651
 H478 H -0.04859 0.22850 0.36523
 C479 C -0.06650 0.26151 0.39328
 H480 H -0.08817 0.25183 0.39424
 N481 N -0.01717 0.26091 0.37340
 C482 C 0.06958 0.22287 0.35362
 H483 H 0.06901 0.22085 0.32972
 C484 C 0.09446 0.21333 0.36913
 H485 H 0.11297 0.20406 0.35701
 C486 C 0.04551 0.23584 0.39863
 H487 H 0.02630 0.24420 0.41020
 C488 C 0.06984 0.22640 0.41502
 H489 H 0.06920 0.22804 0.43902
 Zn490 Zn 0.01207 0.24667 0.34666
 N491 N 0.04582 0.23414 0.36843
 C492 C 0.05007 0.28588 0.31349
 N493 N 0.02158 0.27871 0.32016
 C494 C -0.00099 0.29726 0.31284
 C495 C 0.00479 0.32497 0.30023
 C496 C 0.05678 0.31308 0.30024
 C497 C 0.00763 0.18751 0.33220
 C498 C -0.00545 0.16323 0.32040
 C499 C -0.04053 0.19541 0.29581
 C500 C -0.02647 0.21918 0.30774
 N501 N -0.00324 0.21481 0.32612
 H502 H 0.06786 0.27141 0.31992
 H503 H -0.02343 0.29142 0.31884
 H504 H -0.01326 0.34019 0.29628
 H505 H 0.07965 0.31903 0.29659
 H506 H 0.02560 0.18425 0.34737
 H507 H 0.00275 0.14163 0.32659
 H508 H -0.05966 0.19915 0.28212
 H509 H -0.03493 0.24102 0.30342
 C510 C 0.09472 0.21498 0.40026
 C511 C -0.06106 0.28783 0.40717
 C512 C -0.03030 0.16696 0.30256
 C513 C 0.03405 0.33337 0.29458
 C514 C 1.05946 0.79681 0.08805
 H515 H 1.04665 0.81292 0.09973
 C516 C 1.08505 0.80523 0.07232
 H517 H 1.09182 0.82775 0.07270
 C518 C 1.06673 0.74785 0.07443
 H519 H 1.05957 0.72543 0.07566
 C520 C 1.09234 0.75536 0.05819
 H521 H 1.10444 0.73861 0.04659
 N522 N 1.05113 0.76842 0.08933
 C523 C 0.96599 0.72775 0.10679
 H524 H 0.96647 0.72625 0.13088
 C525 C 0.94257 0.71591 0.09200
 H526 H 0.92510 0.70511 0.10484
 C527 C 0.98872 0.74306 0.06088
 H528 H 1.00681 0.75370 0.04895
 C529 C 0.96577 0.73110 0.04508
 H530 H 0.96623 0.73270 0.02096
 Zn531 Zn 1.01907 0.75588 0.11420
 N532 N 0.98833 0.74123 0.09120
 C533 C 0.97458 0.79398 0.13561
 N534 N 1.00384 0.78725 0.13732
 C535 C 1.02170 0.80244 0.15507
 C536 C 1.01002 0.82448 0.17276
 C537 C 0.96197 0.81531 0.15329
 C538 C 1.02972 0.69700 0.12858
 C539 C 1.03953 0.67256 0.14506
 C540 C 1.05603 0.70442 0.18272
 C541 C 1.04564 0.72831 0.16558
 N542 N 1.03268 0.72424 0.13904
 H543 H 0.96070 0.78269 0.12076
 H544 H 1.04506 0.79756 0.15548
 H545 H 1.02430 0.83604 0.18718
 H546 H 0.93851 0.81979 0.15222
 H547 H 1.01983 0.69416 0.10721
 H548 H 1.03637 0.65114 0.13641
 H549 H 1.06677 0.70822 0.20349
 H550 H 1.04821 0.75000 0.17349
 C551 C 0.94224 0.71750 0.06076
 C552 C 1.10212 0.78434 0.05736
 C553 C 1.05303 0.67603 0.17250
 C554 C 0.97969 0.83058 0.17235
 C555 C 0.54620 0.27475 0.58064
 H556 H 0.52536 0.28637 0.57912
 C557 C 0.57119 0.28594 0.56573
 H558 H 0.56931 0.30600 0.55239
 C559 C 0.57393 0.23459 0.60008
 H560 H 0.57521 0.21504 0.61412
 C561 C 0.59942 0.24496 0.58551
 H562 H 0.61999 0.23309 0.58843
 N563 N 0.54785 0.24922 0.59696
 C564 C 0.45995 0.21277 0.60071
 H565 H 0.45915 0.20684 0.62426
 C566 C 0.43682 0.20537 0.58270
 H567 H 0.41813 0.19366 0.59241
 C568 C 0.48537 0.23518 0.55934
 H569 H 0.50451 0.24642 0.55026
 C570 C 0.46228 0.22874 0.54056
 H571 H 0.46369 0.23508 0.51710
 Zn572 Zn 0.51298 0.23542 0.61654
 N573 N 0.48361 0.22737 0.58889
 C574 C 0.47306 0.27891 0.63529
 N575 N 0.49901 0.26511 0.64163
 C576 C 0.51601 0.27368 0.66424
 C577 C 0.50687 0.29682 0.68177
 C578 C 0.46329 0.30230 0.65199
 C579 C 0.53141 0.17720 0.62287
 C580 C 0.53768 0.15049 0.63739
 C581 C 0.51875 0.17007 0.68322
 C582 C 0.51356 0.19670 0.66792
 N583 N 0.52041 0.19992 0.63837
 H584 H 0.46012 0.27220 0.61689
 H585 H 0.53682 0.26269 0.66845
 H586 H 0.52069 0.30351 0.69959
 H587 H 0.44253 0.31295 0.64665
 H588 H 0.53594 0.18009 0.59920
 H589 H 0.54791 0.13343 0.62465
 H590 H 0.51266 0.16804 0.70663
 H591 H 0.50374 0.21466 0.67963
 C592 C 0.43783 0.21348 0.55232
 C593 C 0.59822 0.27087 0.56792
 C594 C 0.53156 0.14655 0.66813
 C595 C 0.48029 0.31158 0.67551
 C596 C 0.48086 0.75850 0.89809
 H597 H 0.50141 0.77015 0.89827
 C598 C 0.45612 0.76946 0.91308
 H599 H 0.45795 0.78948 0.92490
 C600 C 0.45340 0.71855 0.88218
 H601 H 0.45241 0.69869 0.87009
 C602 C 0.42806 0.72879 0.89685
 H603 H 0.40762 0.71701 0.89531
 N604 N 0.47888 0.73397 0.88225
 C605 C 0.56859 0.70215 0.86909
 H606 H 0.57149 0.70668 0.84539
 C607 C 0.59242 0.69224 0.88590
 H608 H 0.61358 0.68876 0.87491
 C609 C 0.53738 0.70145 0.91215
 H610 H 0.51593 0.70544 0.92224
 C611 C 0.56063 0.69127 0.92982
 H612 H 0.55694 0.68755 0.95356
 Zn613 Zn 0.51178 0.72314 0.85813
 N614 N 0.54183 0.70680 0.88240
 C615 C 0.54753 0.77158 0.85484
 N616 N 0.52745 0.75750 0.83870
 C617 C 0.51930 0.76829 0.81135
 C618 C 0.53179 0.79413 0.79928
 C619 C 0.56074 0.79698 0.84354
 C620 C 0.51128 0.66757 0.83310
 C621 C 0.49819 0.64470 0.81878
 C622 C 0.46201 0.67881 0.79902
 C623 C 0.47593 0.70110 0.81354
 N624 N 0.49947 0.69496 0.83107
 H625 H 0.55332 0.76311 0.87675
 H626 H 0.50321 0.75699 0.79885
 H627 H 0.52535 0.80247 0.77747
 H628 H 0.57668 0.80773 0.85686
 H629 H 0.52964 0.66288 0.84748
 H630 H 0.50677 0.62275 0.82234
 H631 H 0.44231 0.68378 0.78653
 H632 H 0.46642 0.72282 0.81282
 C633 C 0.58867 0.68692 0.91673
 C634 C 0.42903 0.75506 0.91178
 C635 C 0.47251 0.64998 0.80248
 C636 C 0.55308 0.80853 0.81539
 C637 C 0.43063 -0.18368 0.33263
 C638 C 0.45511 -0.17896 0.35057
 C639 C 0.46752 -0.15085 0.34991
 C640 C 0.45552 -0.12812 0.33199
 C641 C 0.43083 -0.13336 0.31442
 C642 C 0.41855 -0.16119 0.31492
 C643 C 0.41878 -0.11070 0.29660
 C644 C 0.43110 -0.08270 0.29592
 C645 C 0.45572 -0.07767 0.31343
 C646 C 0.46785 -0.10018 0.33128
 H647 H 0.48658 -0.14623 0.36279
 H648 H 0.39967 -0.16563 0.30148
 H649 H 0.39946 -0.11477 0.28365
 H650 H 0.48685 -0.09573 0.34452
 H651 H 0.42084 -0.20509 0.33227
 H652 H 0.46576 -0.05637 0.31312
 C653 C 0.95641 0.34069 0.86056
 C654 C 0.96176 0.31618 0.84317
 C655 C 0.95601 0.31854 0.81237
 C656 C 0.94553 0.34500 0.79940
 C657 C 0.94102 0.36936 0.81730
 C658 C 0.94664 0.36702 0.84776
 C659 C 0.93005 0.39554 0.80476
 C660 C 0.92223 0.39773 0.77463
 C661 C 0.92722 0.37359 0.75673
 C662 C 0.93892 0.34749 0.76898
 H663 H 0.95876 0.29998 0.79847
 H664 H 0.94292 0.38543 0.86185
 H665 H 0.92710 0.41414 0.81874
 H666 H 0.94217 0.32907 0.75482
 H667 H 0.95978 0.33942 0.88438
 H668 H 0.92126 0.37456 0.73350
 C669 C 0.00358 1.18440 0.86142
 C670 C 0.00379 1.21075 0.84421
 C671 C 0.01640 1.21064 0.81518
 C672 C 0.02856 1.18487 0.80387
 C673 C 0.02826 1.15889 0.82175
 C674 C 0.01556 1.15886 0.85033
 C675 C 0.04113 1.13338 0.81105
 C676 C 0.05464 1.13333 0.78266
 C677 C 0.05432 1.15904 0.76461
 C678 C 0.04142 1.18464 0.77515
 H679 H 0.01756 1.23055 0.80155
 H680 H 0.01512 1.13907 0.86429
 H681 H 0.04084 1.11353 0.82495
 H682 H 0.04186 1.20431 0.76103
 H683 H -0.00580 1.18296 0.88364
 H684 H 0.06476 1.15954 0.74269
 C685 C 0.51295 0.72456 0.31786
 C686 C 0.50269 0.72122 0.34769
 C687 C 0.50588 0.69365 0.36229
 C688 C 0.51881 0.67012 0.34753
 C689 C 0.52823 0.67382 0.31750
 C690 C 0.52518 0.70109 0.30288
 C691 C 0.54095 0.65032 0.30263
 C692 C 0.54542 0.62317 0.31761
 C693 C 0.53613 0.61983 0.34767
 C694 C 0.52270 0.64297 0.36237
 H695 H 0.49835 0.69007 0.38507
 H696 H 0.53269 0.70443 0.27995
 H697 H 0.54733 0.65331 0.27934
 H698 H 0.51582 0.63974 0.38550
 H699 H 0.51212 0.74538 0.30585
 H700 H 0.53972 0.59951 0.36013
 C701 C 0.53109 0.32159 0.19004
 C702 C 0.51136 0.32690 0.16659
 C703 C 0.50231 0.35592 0.15994
 C704 C 0.51349 0.37903 0.17581
 C705 C 0.53405 0.37322 0.19851
 C706 C 0.54231 0.34442 0.20579
 C707 C 0.54678 0.39634 0.21292
 C708 C 0.53931 0.42533 0.20497
 C709 C 0.51791 0.43098 0.18332
 C710 C 0.50514 0.40800 0.16877
 H711 H 0.48746 0.36108 0.14202
 H712 H 0.55797 0.33957 0.22323
 H713 H 0.56305 0.39186 0.22990
 H714 H 0.48928 0.41292 0.15154
 H715 H 0.53851 0.29957 0.19562
 H716 H 0.51194 0.45321 0.17685
 C717 C 0.03382 0.81573 0.70098
 C718 C 0.01418 0.81985 0.67708
 C719 C 0.00817 0.84891 0.66694
 C720 C 0.02012 0.87273 0.68090
 C721 C 0.03946 0.86798 0.70481
 C722 C 0.04597 0.83943 0.71483
 C723 C 0.05294 0.89184 0.71743
 C724 C 0.04728 0.92040 0.70639
 C725 C 0.02717 0.92493 0.68329
 C726 C 0.01378 0.90130 0.67058
 H727 H -0.00473 0.85340 0.64728
 H728 H 0.06115 0.83536 0.73286
 H729 H 0.06830 0.88818 0.73539
 H730 H -0.00107 0.90535 0.65226
 H731 H 0.04072 0.79405 0.70845
 H732 H 0.02270 0.94671 0.67425
 C733 C 0.96785 0.71574 0.70326
 C734 C 0.98071 0.71704 0.67432
 C735 C 0.98242 0.69107 0.65839
 C736 C 0.97019 0.66507 0.67032
 C737 C 0.95602 0.66478 0.69862
 C738 C 0.95551 0.69001 0.71512
 C739 C 0.94191 0.63947 0.70965
 C740 C 0.94186 0.61431 0.69280
 C741 C 0.95726 0.61426 0.66535
 C742 C 0.97128 0.63948 0.65414
 H743 H 0.99365 0.69063 0.63689
 H744 H 0.94485 0.69009 0.73695
 H745 H 0.93037 0.63949 0.73105
 H746 H 0.98228 0.63920 0.63249
 H747 H 0.96547 0.73492 0.71637
 H748 H 0.95739 0.59507 0.65202
 C749 C 0.44387 0.22821 0.18459
 C750 C 0.46887 0.22571 0.16585
 C751 C 0.47919 0.19797 0.15825
 C752 C 0.46441 0.17287 0.16882
 C753 C 0.43870 0.17557 0.18693
 C754 C 0.42879 0.20332 0.19495
 C755 C 0.42322 0.15049 0.19645
 C756 C 0.43343 0.12276 0.18854
 C757 C 0.45942 0.12026 0.17123
 C758 C 0.47470 0.14513 0.16127
 H759 H 0.49866 0.19597 0.14398
 H760 H 0.40919 0.20578 0.20889
 H761 H 0.40333 0.15247 0.21010
 H762 H 0.49443 0.14269 0.14751
 H763 H 0.43544 0.24948 0.19040
 H764 H 0.46752 0.09904 0.16487
 C765 C 0.31300 0.45826 -0.18840
 C766 C 0.34357 0.45256 -0.19094
 C767 C 0.35746 0.43734 -0.16716
 C768 C 0.34115 0.42682 -0.14222
 C769 C 0.31045 0.43201 -0.14049
 C770 C 0.29666 0.44796 -0.16354
 C771 C 0.29403 0.42117 -0.11574
 C772 C 0.30787 0.40494 -0.09270
 C773 C 0.33852 0.40011 -0.09458
 C774 C 0.35502 0.41101 -0.11907
 H775 H 0.38109 0.43349 -0.16824
 H776 H 0.27317 0.45252 -0.16235
 H777 H 0.27050 0.42546 -0.11438
 H778 H 0.37857 0.40678 -0.12006
 H779 H 0.30131 0.47097 -0.20510
 H780 H 0.34971 0.38735 -0.07738
 C781 C 0.87013 0.95786 0.35039
 C782 C 0.85323 0.96403 0.32487
 C783 C 0.82252 0.95941 0.32690
 C784 C 0.80920 0.94892 0.35368
 C785 C 0.82661 0.94277 0.37889
 C786 C 0.85703 0.94744 0.37704
 C787 C 0.81342 0.93147 0.40537
 C788 C 0.78297 0.92602 0.40700
 C789 C 0.76577 0.93268 0.38191
 C790 C 0.77874 0.94404 0.35553
 H791 H 0.80868 0.96323 0.30792
 H792 H 0.87076 0.94278 0.39612
 H793 H 0.82704 0.92604 0.42438
 H794 H 0.76497 0.94874 0.33648
 H795 H 0.89379 0.96092 0.34955
 H796 H 0.74222 0.92903 0.38269
 C797 C 0.86722 -0.00173 1.18866
 C798 C 0.85346 0.00366 1.21628
 C799 C 0.82709 0.02005 1.21691
 C800 C 0.81474 0.03112 1.19041
 C801 C 0.82884 0.02578 1.16274
 C802 C 0.85500 0.00919 1.16211
 C803 C 0.81680 0.03757 1.13627
 C804 C 0.79106 0.05495 1.13721
 C805 C 0.77704 0.05966 1.16487
 C806 C 0.78873 0.04784 1.19120
 H807 H 0.81652 0.02485 1.23806
 H808 H 0.86608 0.00479 1.14112
 H809 H 0.82795 0.03403 1.11510
 H810 H 0.77758 0.05203 1.21222
 H811 H 0.88731 -0.01464 1.18754
 H812 H 0.75698 0.07263 1.16612
 C813 C 0.36952 0.52331 0.69111
 C814 C 0.35386 0.49972 0.70421
 C815 C 0.32703 0.49167 0.69186
 C816 C 0.31547 0.50764 0.66745
 C817 C 0.33115 0.53168 0.65486
 C818 C 0.35834 0.53908 0.66657
 C819 C 0.31910 0.54830 0.63116
 C820 C 0.29134 0.54149 0.62004
 C821 C 0.27620 0.51719 0.63242
 C822 C 0.28819 0.50037 0.65584
 H823 H 0.31495 0.47322 0.70142
 H824 H 0.37062 0.55748 0.65721
 H825 H 0.33128 0.56664 0.62149
 H826 H 0.27586 0.48201 0.66525
 H827 H 0.38996 0.53033 0.70042
 H828 H 0.25468 0.51161 0.62451
 C829 C 0.19827 0.52856 0.31347
 C830 C 0.16942 0.51746 0.31372
 C831 C 0.15275 0.51747 0.34058
 C832 C 0.16481 0.52764 0.36669
 C833 C 0.19387 0.53839 0.36608
 C834 C 0.21048 0.53855 0.33942
 C835 C 0.20544 0.54985 0.39182
 C836 C 0.18820 0.55104 0.41816
 C837 C 0.15953 0.53968 0.41869
 C838 C 0.14795 0.52804 0.39320
 H839 H 0.12999 0.51056 0.34108
 H840 H 0.23266 0.54712 0.33845
 H841 H 0.22741 0.55895 0.39099
 H842 H 0.12565 0.51979 0.39410
 H843 H 0.21125 0.53034 0.29301
 H844 H 0.14595 0.54002 0.43881
 C845 C 0.69342 0.02163 0.82120
 C846 C 0.66476 0.01026 0.82478
 C847 C 0.65163 0.00929 0.85354
 C848 C 0.66642 0.01961 0.87801
 C849 C 0.69497 0.03127 0.87404
 C850 C 0.70845 0.03174 0.84563
 C851 C 0.70887 0.04354 0.89823
 C852 C 0.69421 0.04476 0.92610
 C853 C 0.66626 0.03209 0.92995
 C854 C 0.65253 0.01954 0.90617
 H855 H 0.62923 0.00160 0.85666
 H856 H 0.73023 0.04086 0.84209
 H857 H 0.73032 0.05349 0.89499
 H858 H 0.63069 0.01052 0.90961
 H859 H 0.70400 0.02396 0.79949
 H860 H 0.65474 0.03247 0.95132
 C861 C 0.63901 0.99193 0.69023
 C862 C 0.65365 0.98243 0.71612
 C863 C 0.67727 0.96252 0.71379
 C864 C 0.68561 0.95158 0.68607
 C865 C 0.67050 0.96097 0.66015
 C866 C 0.64745 0.98144 0.66245
 C867 C 0.67815 0.94910 0.63258
 C868 C 0.70024 0.92747 0.63084
 C869 C 0.71544 0.91873 0.65668
 C870 C 0.70832 0.93077 0.68401
 H871 H 0.68840 0.95464 0.73369
 H872 H 0.63563 0.98897 0.64285
 H873 H 0.66617 0.95578 0.61279
 H874 H 0.72018 0.92338 0.70363
 H875 H 0.62104 1.00753 0.69146
 H876 H 0.73276 0.90232 0.65574
 C877 C 0.19307 0.44976 0.21766
 C878 C 0.17720 0.47551 0.21074
 C879 C 0.17306 0.48407 0.18080
 C880 C 0.18412 0.46683 0.15789
 C881 C 0.19925 0.44047 0.16506
 C882 C 0.20394 0.43232 0.19500
 C883 C 0.20900 0.42249 0.14219
 C884 C 0.20415 0.43069 0.11222
 C885 C 0.18993 0.45735 0.10527
 C886 C 0.17985 0.47523 0.12793
 H887 H 0.16108 0.50401 0.17536
 H888 H 0.21554 0.41222 0.20089
 H889 H 0.22027 0.40207 0.14765
 H890 H 0.16840 0.49542 0.12204
 H891 H 0.19610 0.44256 0.24065
 H892 H 0.18591 0.46396 0.08229
 C893 C -0.18036 0.30478 0.47518
 C894 C -0.18217 0.33543 0.47158
 C895 C -0.15801 0.35029 0.45815
 C896 C -0.13339 0.33504 0.44723
 C897 C -0.13218 0.30435 0.45038
 C898 C -0.15554 0.28949 0.46488
 C899 C -0.10805 0.28901 0.43826
 C900 C -0.08535 0.30397 0.42242
 C901 C -0.08675 0.33463 0.41985
 C902 C -0.11038 0.35000 0.43231
 H903 H -0.15899 0.37384 0.45516
 H904 H -0.15497 0.26592 0.46756
 H905 H -0.10719 0.26544 0.44083
 H906 H -0.11105 0.37356 0.42956
 H907 H -0.19803 0.29212 0.48527
 H908 H -0.07002 0.34682 0.40735
 C909 C 0.34135 0.85590 0.93385
 C910 C 0.31853 0.84005 0.94895
 C911 C 0.32303 0.80970 0.95435
 C912 C 0.34902 0.79582 0.94408
 C913 C 0.37097 0.81234 0.92863
 C914 C 0.36689 0.84226 0.92363
 C915 C 0.39691 0.79883 0.91853
 C916 C 0.40161 0.76881 0.92360
 C917 C 0.37971 0.75231 0.93887
 C918 C 0.35368 0.76572 0.94915
 H919 H 0.30705 0.79677 0.96704
 H920 H 0.38367 0.85528 0.91208
 H921 H 0.41331 0.81171 0.90623
 H922 H 0.33721 0.75257 0.96099
 H923 H 0.33952 0.87932 0.93021
 H924 H 0.38284 0.72910 0.94309
 C925 C 1.19067 0.86673 -0.00902
 C926 C 1.21595 0.84853 -0.00750
 C927 C 1.21257 0.81981 0.00452
 C928 C 1.18513 0.81030 0.01620
 C929 C 1.16040 0.82925 0.01500
 C930 C 1.16333 0.85718 0.00190
 C931 C 1.13321 0.82024 0.02739
 C932 C 1.13036 0.79269 0.04190
 C933 C 1.15505 0.77379 0.04267
 C934 C 1.18209 0.78244 0.02980
 H935 H 1.23149 0.80529 0.00639
 H936 H 1.14448 0.87184 0.00037
 H937 H 1.11434 0.83489 0.02601
 H938 H 1.20080 0.76758 0.03109
 H939 H 1.19135 0.88821 -0.01958
 H940 H 1.15373 0.75258 0.05399
 C941 C 0.69006 0.36299 0.52501
 C942 C 0.71068 0.34390 0.51186
 C943 C 0.70357 0.31407 0.51115
 C944 C 0.67733 0.30345 0.52443
 C945 C 0.65740 0.32286 0.53820
 C946 C 0.66384 0.35259 0.53810
 C947 C 0.63144 0.31220 0.55201
 C948 C 0.62516 0.28226 0.55241
 C949 C 0.64502 0.26316 0.53834
 C950 C 0.67082 0.27366 0.52441
 H951 H 0.71819 0.29888 0.50016
 H952 H 0.64868 0.36784 0.54836
 H953 H 0.61648 0.32712 0.56305
 H954 H 0.68578 0.25844 0.51383
 H955 H 0.69390 0.38607 0.52577
 H956 H 0.64049 0.24006 0.53797
 C957 C 0.34478 0.13161 0.50554
 C958 C 0.32538 0.15309 0.49376
 C959 C 0.33444 0.18244 0.49256
 C960 C 0.36157 0.19014 0.50451
 C961 C 0.37984 0.16831 0.51771
 C962 C 0.37161 0.13909 0.51743
 C963 C 0.40550 0.17611 0.53207
 C964 C 0.41333 0.20547 0.53335
 C965 C 0.39609 0.22702 0.51886
 C966 C 0.37029 0.21942 0.50458
 H967 H 0.32035 0.19954 0.48353
 H968 H 0.38550 0.12208 0.52722
 H969 H 0.41896 0.15946 0.54313
 H970 H 0.35674 0.23648 0.49441
 H971 H 0.33851 0.10887 0.50662
 H972 H 0.40190 0.24979 0.51975
 C973 C 0.81332 0.68206 0.04108
 C974 C 0.81881 0.66192 0.01865
 C975 C 0.84801 0.65859 0.00762
 C976 C 0.87109 0.67461 0.01917
 C977 C 0.86514 0.69407 0.04222
 C978 C 0.83615 0.69792 0.05273
 C979 C 0.88838 0.70878 0.05496
 C980 C 0.91762 0.70432 0.04501
 C981 C 0.92326 0.68577 0.02133
 C982 C 0.90019 0.67097 0.00856
 H983 H 0.85342 0.64315 -0.00922
 H984 H 0.83118 0.71282 0.07035
 H985 H 0.88381 0.72335 0.07298
 H986 H 0.90520 0.65623 -0.00919
 H987 H 0.79120 0.68502 0.05013
 H988 H 0.94564 0.68191 0.01344
 C989 C 0.71845 0.68298 0.95666
 C990 C 0.71593 0.65926 0.97727
 C991 C 0.68811 0.64673 0.98287
 C992 C 0.66326 0.65730 0.96761
 C993 C 0.66625 0.68071 0.94644
 C994 C 0.69384 0.69362 0.94140
 C995 C 0.64171 0.69053 0.93030
 C996 C 0.61411 0.67729 0.93498
 C997 C 0.61117 0.65452 0.95662
 C998 C 0.63556 0.64455 0.97276
 H999 H 0.68579 0.62862 0.99890
 H1000 H 0.69651 0.71159 0.92524
 H1001 H 0.64410 0.70844 0.91401
 H1002 H 0.63284 0.62663 0.98896
 H1003 H 0.73967 0.69273 0.95151
 H1004 H 0.59015 0.64393 0.96051
 C1005 C 0.22621 0.18995 0.42802
 C1006 C 0.22121 0.17135 0.45312
 C1007 C 0.19227 0.16683 0.46374
 C1008 C 0.16836 0.17974 0.44887
 C1009 C 0.17341 0.19767 0.42302
 C1010 C 0.20246 0.20302 0.41304
 C1011 C 0.14932 0.20950 0.40739
 C1012 C 0.12027 0.20368 0.41737
 C1013 C 0.11564 0.18632 0.44347
 C1014 C 0.13946 0.17445 0.45908
 H1015 H 0.18834 0.15300 0.48342
 H1016 H 0.20678 0.21679 0.39332
 H1017 H 0.15312 0.22315 0.38747
 H1018 H 0.13525 0.16074 0.47886
 H1019 H 0.24840 0.19350 0.41935
 H1020 H 0.09349 0.18129 0.45142
 C1021 C 0.58114 0.06910 0.77177
 C1022 C 0.58664 0.04345 0.75588
 C1023 C 0.57483 0.04230 0.72702
 C1024 C 0.56148 0.06709 0.71334
 C1025 C 0.55907 0.09323 0.72878
 C1026 C 0.56798 0.09366 0.75830
 C1027 C 0.54848 0.11876 0.71430
 C1028 C 0.53979 0.11867 0.68438
 C1029 C 0.54063 0.09198 0.66979
 C1030 C 0.55153 0.06655 0.68402
 H1031 H 0.57720 0.02306 0.71410
 H1032 H 0.56529 0.11324 0.77090
 H1033 H 0.54839 0.13891 0.72607
 H1034 H 0.55272 0.04660 0.67187
 H1035 H 0.58708 0.07075 0.79479
 H1036 H 0.53320 0.09070 0.64715
 C1037 C 1.11315 0.55514 0.19472
 C1038 C 1.11232 0.55500 0.22600
 C1039 C 1.09825 0.57830 0.24033
 C1040 C 1.08635 0.60193 0.22373
 C1041 C 1.08822 0.60228 0.19229
 C1042 C 1.10132 0.57861 0.17800
 C1043 C 1.07726 0.62643 0.17571
 C1044 C 1.06420 0.65025 0.19011
 C1045 C 1.06202 0.64932 0.22143
 C1046 C 1.07302 0.62543 0.23807
 H1047 H 1.09671 0.57819 0.26445
 H1048 H 1.10280 0.57843 0.15389
 H1049 H 1.07950 0.62689 0.15163
 H1050 H 1.07122 0.62541 0.26217
 H1051 H 1.12372 0.53758 0.18306
 H1052 H 1.05159 0.66702 0.23312
 C1053 C 0.94678 0.95107 0.22266
 C1054 C 0.92444 0.94136 0.24296
 C1055 C 0.91950 0.91102 0.24603
 C1056 C 0.93552 0.89119 0.22889
 C1057 C 0.95766 0.90130 0.20860
 C1058 C 0.96331 0.93127 0.20591
 C1059 C 0.97312 0.88130 0.19087
 C1060 C 0.96587 0.85156 0.19268
 C1061 C 0.94389 0.84182 0.21301
 C1062 C 0.92903 0.86139 0.23116
 H1063 H 0.90193 0.90249 0.26038
 H1064 H 0.98031 0.93947 0.19058
 H1065 H 0.98989 0.88890 0.17494
 H1066 H 0.91204 0.85327 0.24655
 H1067 H 0.95234 0.97387 0.22006
 H1068 H 0.93809 0.81897 0.21465
 C1069 C 0.42082 0.43095 0.69900
 C1070 C 0.41936 0.42792 0.73024
 C1071 C 0.43284 0.40352 0.74442
 C1072 C 0.44637 0.38174 0.72759
 C1073 C 0.44662 0.38443 0.69613
 C1074 C 0.43433 0.40940 0.68208
 C1075 C 0.45843 0.36179 0.67926
 C1076 C 0.47004 0.33642 0.69340
 C1077 C 0.47067 0.33444 0.72468
 C1078 C 0.45888 0.35687 0.74164
 H1079 H 0.43216 0.40115 0.76854
 H1080 H 0.43442 0.41187 0.65799
 H1081 H 0.45827 0.36371 0.65513
 H1082 H 0.45898 0.35449 0.76573
 H1083 H 0.41033 0.44934 0.68752
 H1084 H 0.47942 0.31508 0.73603
 C1085 C 0.44795 0.52525 0.76061
 C1086 C 0.41813 0.52463 0.76948
 C1087 C 0.40464 0.54990 0.78034
 C1088 C 0.42096 0.57530 0.78337
 C1089 C 0.45136 0.57547 0.77573
 C1090 C 0.46456 0.55044 0.76394
 C1091 C 0.46806 0.60041 0.78070
 C1092 C 0.45465 0.62515 0.79306
 C1093 C 0.42415 0.62499 0.79935
 C1094 C 0.40748 0.60031 0.79459
 H1095 H 0.38140 0.54969 0.78656
 H1096 H 0.48777 0.55021 0.75770
 H1097 H 0.49153 0.60037 0.77559
 H1098 H 0.38417 0.60054 0.80042
 H1099 H 0.45856 0.50599 0.75192
 H1100 H 0.41336 0.64354 0.80928
 C1101 C -0.04966 0.03924 0.26720
 C1102 C -0.07960 0.03809 0.27549
 C1103 C -0.09429 0.06357 0.28426
 C1104 C -0.07896 0.08975 0.28607
 C1105 C -0.04840 0.09050 0.27926
 C1106 C -0.03406 0.06525 0.26928
 C1107 C -0.03265 0.11620 0.28342
 C1108 C -0.04718 0.14116 0.29406
 C1109 C -0.07781 0.14045 0.29934
 C1110 C -0.09355 0.11497 0.29546
 H1111 H -0.11759 0.06281 0.29017
 H1112 H -0.01071 0.06546 0.26369
 H1113 H -0.00906 0.11663 0.27907
 H1114 H -0.11701 0.11477 0.30060
 H1115 H -0.03814 0.01977 0.26021
 H1116 H -0.08941 0.15927 0.30782
 C1117 C 0.10701 0.43455 0.23771
 C1118 C 0.09922 0.45513 0.25896
 C1119 C 0.07665 0.44871 0.27997
 C1120 C 0.06323 0.42128 0.28100
 C1121 C 0.07270 0.39991 0.26090
 C1122 C 0.09395 0.40707 0.23876
 C1123 C 0.06182 0.37141 0.26423
 C1124 C 0.04139 0.36416 0.28721
 C1125 C 0.03069 0.38604 0.30578
 C1126 C 0.04160 0.41435 0.30279
 H1127 H 0.07047 0.46463 0.29629
 H1128 H 0.10129 0.39108 0.22299
 H1129 H 0.07004 0.35460 0.24978
 H1130 H 0.03394 0.43051 0.31823
 H1131 H 0.12442 0.43904 0.22139
 H1132 H 0.01511 0.38081 0.32376
 C1133 C 0.56408 0.93907 0.77575
 C1134 C 0.59442 0.94096 0.78068
 C1135 C 0.61073 0.91537 0.78699
 C1136 C 0.59672 0.88840 0.79050
 C1137 C 0.56586 0.88669 0.78720
 C1138 C 0.54984 0.91209 0.77905
 C1139 C 0.55159 0.85994 0.79344
 C1140 C 0.56788 0.83530 0.80350
 C1141 C 0.59870 0.83714 0.80517
 C1142 C 0.61300 0.86337 0.79860
 H1143 H 0.63431 0.91666 0.79023
 H1144 H 0.52622 0.91124 0.77620
 H1145 H 0.52780 0.85871 0.79219
 H1146 H 0.63670 0.86432 0.80095
 H1147 H 0.55124 0.95860 0.77065
 H1148 H 0.61166 0.81833 0.81248
 C1149 C 0.75265 0.56824 0.06639
 C1150 C 0.74011 0.59263 0.05153
 C1151 C 0.71341 0.60438 0.06212
 C1152 C 0.69980 0.59252 0.08814
 C1153 C 0.71265 0.56810 0.10326
 C1154 C 0.73881 0.55579 0.09186
 C1155 C 0.69956 0.55690 0.12989
 C1156 C 0.67396 0.57003 0.14190
 C1157 C 0.66148 0.59433 0.12655
 C1158 C 0.67414 0.60534 0.09989
 H1159 H 0.70418 0.62372 0.05109
 H1160 H 0.74906 0.53714 0.10316
 H1161 H 0.70928 0.53797 0.14120
 H1162 H 0.66414 0.62420 0.08873
 H1163 H 0.77354 0.55933 0.05865
 H1164 H 0.64210 0.60523 0.13542
 C1165 C 0.20267 1.10110 0.52841
 C1166 C 0.23339 1.10357 0.53122
 C1167 C 0.24629 1.09313 0.55790
 C1168 C 0.22885 1.08262 0.58195
 C1169 C 0.19798 1.08103 0.57911
 C1170 C 0.18517 1.08984 0.55206
 C1171 C 0.18049 1.07118 0.60354
 C1172 C 0.19354 1.06372 0.63093
 C1173 C 0.22425 1.06528 0.63345
 C1174 C 0.24182 1.07436 0.60907
 H1175 H 0.26996 1.09340 0.56037
 H1176 H 0.16153 1.08864 0.54941
 H1177 H 0.15674 1.07013 0.60160
 H1178 H 0.26548 1.07545 0.61159
 H1179 H 0.19180 1.10839 0.50831
 H1180 H 0.23464 1.05933 0.65434
 C1181 C 0.21886 0.93313 0.93946
 C1182 C 0.24386 0.91704 0.92974
 C1183 C 0.25330 0.92168 0.89966
 C1184 C 0.23684 0.93886 0.87953
 C1185 C 0.21102 0.95321 0.88937
 C1186 C 0.20268 0.95082 0.91953
 C1187 C 0.19386 0.96937 0.86882
 C1188 C 0.20198 0.97084 0.83834
 C1189 C 0.22812 0.95680 0.82900
 C1190 C 0.24549 0.94121 0.84941
 H1191 H 0.27340 0.91201 0.89114
 H1192 H 0.18321 0.96219 0.92766
 H1193 H 0.17407 0.98048 0.87651
 H1194 H 0.26527 0.93025 0.84144
 H1195 H 0.21086 0.93223 0.96219
 H1196 H 0.23476 0.95706 0.80570
 C1197 C 0.73215 0.38517 0.40701
 C1198 C 0.73787 0.40096 0.43244
 C1199 C 0.72816 0.43010 0.43370
 C1200 C 0.71353 0.44351 0.40937
 C1201 C 0.70812 0.42733 0.38390
 C1202 C 0.71738 0.39818 0.38302
 C1203 C 0.69349 0.44047 0.35965
 C1204 C 0.68403 0.46970 0.36026
 C1205 C 0.68983 0.48582 0.38546
 C1206 C 0.70439 0.47282 0.40985
 H1207 H 0.73263 0.44243 0.45319
 H1208 H 0.71329 0.38545 0.36373
 H1209 H 0.68960 0.42793 0.34016
 H1210 H 0.70836 0.48564 0.42911
 H1211 H 0.73901 0.36255 0.40576
 H1212 H 0.68253 0.50831 0.38658
 C1213 C 0.75134 0.41303 0.55467
 C1214 C 0.77329 0.41488 0.53218
 C1215 C 0.79748 0.43315 0.53572
 C1216 C 0.80035 0.44845 0.56197
 C1217 C 0.77868 0.44558 0.58500
 C1218 C 0.75393 0.42831 0.58082
 C1219 C 0.78271 0.45913 0.61217
 C1220 C 0.80814 0.47554 0.61657
 C1221 C 0.82899 0.47901 0.59307
 C1222 C 0.82513 0.46564 0.56605
 H1223 H 0.81457 0.43459 0.51848
 H1224 H 0.73711 0.42577 0.59820
 H1225 H 0.76640 0.45646 0.63004
 H1226 H 0.84194 0.46809 0.54865
 H1227 H 0.73305 0.39844 0.55288
 H1228 H 0.84897 0.49117 0.59597
 C1229 C 0.26559 -0.06624 0.02826
 C1230 C 0.28367 -0.09063 0.02193
 C1231 C 0.30659 -0.09789 0.04177
 C1232 C 0.31188 -0.08117 0.06643
 C1233 C 0.29378 -0.05676 0.07232
 C1234 C 0.27058 -0.04960 0.05317
 C1235 C 0.29952 -0.03986 0.09702
 C1236 C 0.32354 -0.04696 0.11532
 C1237 C 0.34113 -0.07149 0.10930
 C1238 C 0.33527 -0.08855 0.08521
 H1239 H 0.32014 -0.11717 0.03890
 H1240 H 0.25655 -0.03081 0.05716
 H1241 H 0.28591 -0.02091 0.10158
 H1242 H 0.34928 -0.10731 0.08105
 H1243 H 0.24826 -0.05890 0.01355
 H1244 H 0.35949 -0.07750 0.12339
 C1245 C 0.24617 0.10193 0.40731
 C1246 C 0.26509 0.09134 0.42965
 C1247 C 0.28321 0.06702 0.42446
 C1248 C 0.28410 0.05468 0.39637
 C1249 C 0.26676 0.06698 0.37318
 C1250 C 0.24707 0.08990 0.37919
 C1251 C 0.27083 0.05742 0.34405
 C1252 C 0.29193 0.03571 0.33794
 C1253 C 0.30729 0.02204 0.36153
 C1254 C 0.30346 0.03149 0.39054
 H1255 H 0.29772 0.05878 0.44180
 H1256 H 0.23341 0.09941 0.36178
 H1257 H 0.25889 0.06796 0.32588
 H1258 H 0.31670 0.02165 0.40811
 H1259 H 0.23212 0.12076 0.41095
 H1260 H 0.32381 0.00540 0.35719
 C1261 C 0.75286 0.59624 0.92733
 C1262 C 0.77433 0.59018 0.94884
 C1263 C 0.79775 0.57114 0.94227
 C1264 C 0.80098 0.55985 0.91382
 C1265 C 0.78045 0.56756 0.89150
 C1266 C 0.75593 0.58506 0.89881
 C1267 C 0.78572 0.55895 0.86205
 C1268 C 0.81149 0.54313 0.85481
 C1269 C 0.83049 0.53392 0.87775
 C1270 C 0.82534 0.54222 0.90693
 H1271 H 0.81426 0.56630 0.95892
 H1272 H 0.73981 0.59107 0.88214
 H1273 H 0.77088 0.56606 0.84457
 H1274 H 0.84103 0.53575 0.92387
 H1275 H 0.73469 0.61102 0.93199
 H1276 H 0.85005 0.52105 0.87287
 C1277 C 0.03546 0.72683 0.58379
 C1278 C 0.04282 0.74646 0.60586
 C1279 C 0.07297 0.74944 0.61246
 C1280 C 0.09484 0.73282 0.59836
 C1281 C 0.08708 0.71328 0.57638
 C1282 C 0.05735 0.71070 0.56904
 C1283 C 0.10916 0.69624 0.56273
 C1284 C 0.13858 0.69800 0.57165
 C1285 C 0.14599 0.71737 0.59361
 C1286 C 0.12436 0.73487 0.60666
 H1287 H 0.07973 0.76323 0.63002
 H1288 H 0.05096 0.69590 0.55215
 H1289 H 0.10342 0.68103 0.54594
 H1290 H 0.13065 0.74965 0.62362
 H1291 H 0.01291 0.72427 0.57713
 H1292 H 0.16860 0.71887 0.60066
 C1293 C 0.54142 0.22689 1.08028
 C1294 C 0.54774 0.24530 1.10362
 C1295 C 0.57697 0.24641 1.11353
 C1296 C 0.59942 0.22982 1.10027
 C1297 C 0.59264 0.21096 1.07730
 C1298 C 0.56359 0.20969 1.06743
 C1299 C 0.61507 0.19377 1.06462
 C1300 C 0.64422 0.19590 1.07415
 C1301 C 0.65087 0.21517 1.09648
 C1302 C 0.62858 0.23180 1.10969
 H1303 H 0.58243 0.25979 1.13192
 H1304 H 0.55804 0.19558 1.04962
 H1305 H 0.61002 0.17897 1.04721
 H1306 H 0.63417 0.24626 1.12719
 H1307 H 0.51944 0.22588 1.07156
 H1308 H 0.67328 0.21692 1.10404
 C1309 C 0.93150 0.20319 0.90592
 C1310 C 0.93392 0.23273 0.91227
 C1311 C 0.91393 0.24514 0.93263
 C1312 C 0.89159 0.22812 0.94639
 C1313 C 0.88915 0.19844 0.93950
 C1314 C 0.90939 0.18612 0.91947
 C1315 C 0.86620 0.18167 0.95228
 C1316 C 0.84563 0.19407 0.97204
 C1317 C 0.84859 0.22340 0.97932
 C1318 C 0.87133 0.24033 0.96653
 H1319 H 0.91561 0.26804 0.93740
 H1320 H 0.90771 0.16347 0.91378
 H1321 H 0.86433 0.15895 0.94688
 H1322 H 0.87287 0.26301 0.97213
 H1323 H 0.94585 0.19359 0.88942
 H1324 H 0.83288 0.23341 0.99441
 C1325 C 0.43428 0.70641 0.42034
 C1326 C 0.43251 0.73691 0.42155
 C1327 C 0.40903 0.74961 0.43766
 C1328 C 0.38670 0.73226 0.45082
 C1329 C 0.38806 0.70167 0.44840
 C1330 C 0.41228 0.68891 0.43370
 C1331 C 0.36481 0.68447 0.46003
 C1332 C 0.34012 0.69746 0.47393
 C1333 C 0.33945 0.72785 0.47691
 C1334 C 0.36254 0.74509 0.46550
 H1335 H 0.40768 0.77310 0.43924
 H1336 H 0.41374 0.66548 0.43173
 H1337 H 0.36580 0.66100 0.45803
 H1338 H 0.36118 0.76852 0.46756
 H1339 H 0.45188 0.69610 0.40787
 H1340 H 0.32063 0.73840 0.48733
 C1341 C 0.55237 0.75649 0.41903
 C1342 C 0.52886 0.77602 0.42388
 C1343 C 0.53162 0.79759 0.44492
 C1344 C 0.55820 0.80082 0.45973
 C1345 C 0.58250 0.78228 0.45342
 C1346 C 0.57908 0.75967 0.43360
 C1347 C 0.61005 0.78763 0.46589
 C1348 C 0.61351 0.81145 0.48432
 C1349 C 0.58858 0.82834 0.49198
 C1350 C 0.56124 0.82314 0.47976
 H1351 H 0.51336 0.81250 0.44895
 H1352 H 0.59733 0.74509 0.42861
 H1353 H 0.62905 0.77442 0.45984
 H1354 H 0.54272 0.83723 0.48521
 H1355 H 0.55059 0.73974 0.40282
 H1356 H 0.59047 0.84631 0.50676
 C1357 C 0.05504 0.24965 -0.08813
 C1358 C 0.03196 0.26988 -0.08436
 C1359 C 0.03512 0.29251 -0.06460
 C1360 C 0.06174 0.29602 -0.04999
 C1361 C 0.08565 0.27671 -0.05527
 C1362 C 0.08181 0.25312 -0.07379
 C1363 C 0.11325 0.28212 -0.04302
 C1364 C 0.11716 0.30664 -0.02562
 C1365 C 0.09257 0.32442 -0.01898
 C1366 C 0.06521 0.31927 -0.03116
 H1367 H 0.01717 0.30800 -0.06149
 H1368 H 0.09977 0.23794 -0.07794
 H1369 H 0.13192 0.26818 -0.04835
 H1370 H 0.04695 0.33396 -0.02648
 H1371 H 0.05290 0.23210 -0.10339
 H1372 H 0.09465 0.34286 -0.00485
 C1373 C 0.44656 0.30165 0.06441
 C1374 C 0.44912 0.28118 0.08822
 C1375 C 0.42569 0.26229 0.09543
 C1376 C 0.39898 0.26530 0.08036
 C1377 C 0.39630 0.28651 0.05685
 C1378 C 0.42049 0.30397 0.04848
 C1379 C 0.36895 0.29128 0.04347
 C1380 C 0.34392 0.27616 0.05421
 C1381 C 0.34686 0.25462 0.07702
 C1382 C 0.37432 0.24886 0.08967
 H1383 H 0.42748 0.24681 0.11417
 H1384 H 0.41877 0.32038 0.03059
 H1385 H 0.36662 0.30836 0.02629
 H1386 H 0.37595 0.23261 0.10772
 H1387 H 0.46448 0.31639 0.05874
 H1388 H 0.32769 0.24294 0.08564
 C1389 C 0.93936 0.76103 0.58456
 C1390 C 0.94290 0.77450 0.61190
 C1391 C 0.91816 0.78792 0.62526
 C1392 C 0.89124 0.79001 0.61079
 C1393 C 0.88856 0.77899 0.58204
 C1394 C 0.91256 0.76375 0.56948
 C1395 C 0.86244 0.78460 0.56615
 C1396 C 0.83940 0.80109 0.57902
 C1397 C 0.84162 0.80943 0.60867
 C1398 C 0.86730 0.80409 0.62435
 H1399 H 0.91962 0.79669 0.64724
 H1400 H 0.91089 0.75468 0.54766
 H1401 H 0.86081 0.77784 0.54339
 H1402 H 0.86885 0.81206 0.64667
 H1403 H 0.95783 0.75025 0.57375
 H1404 H 0.82386 0.82150 0.61925
   
