data_POSCAR
  _audit_creation_date              2014-09-24
  _audit_creation_method            'ToBaCCo'
  _symmetry_space_group_name_H-M    'P1'
  _symmetry_Int_Tables_number       1
  _symmetry_cell_setting            triclinic
  loop_
  _symmetry_equiv_pos_as_xyz
 x,y,z
_cell_length_a 97.9649
_cell_length_b 97.5663
_cell_length_c 97.9832
_cell_angle_alpha 89.972900
_cell_angle_beta 89.997700
_cell_angle_gamma 90.008300
loop_
  _atom_site_label
  _atom_site_type_symbol
  _atom_site_fract_x
  _atom_site_fract_y
  _atom_site_fract_z
C1 C 0.30599 0.43544 0.92447
 C2 C 0.30582 0.42557 0.93488
 C3 C 0.31575 0.42577 0.94490
 C4 C 0.32597 0.43583 0.94467
 C5 C 0.32613 0.44553 0.93445
 C6 C 0.31608 0.44534 0.92425
 C7 C 0.29799 0.43741 0.91309
 N8 N 0.30300 0.44826 0.90594
 C9 C 0.31408 0.45316 0.91274
 C10 C 0.33748 0.45357 0.93646
 N11 N 0.34440 0.44902 0.94771
 C12 C 0.33723 0.43811 0.95273
 C13 C 0.31345 0.41469 0.95328
 N14 N 0.30236 0.40774 0.94860
 C15 C 0.29763 0.41437 0.93735
 H16 H 0.28942 0.43112 0.91004
 H17 H 0.32027 0.46177 0.90956
 H18 H 0.34047 0.46187 0.92981
 H19 H 0.33984 0.43199 0.96153
 H20 H 0.31949 0.41188 0.96210
 H21 H 0.28913 0.41107 0.93111
 C22 C 0.43561 0.82405 0.44535
 C23 C 0.42530 0.81407 0.44511
 C24 C 0.42513 0.80427 0.43493
 C25 C 0.43527 0.80433 0.42482
 C26 C 0.44541 0.81418 0.42507
 C27 C 0.44557 0.82409 0.43543
 C28 C 0.43792 0.83517 0.45363
 N29 N 0.44912 0.84215 0.44904
 C30 C 0.45381 0.83524 0.43785
 C31 C 0.45346 0.81214 0.41374
 N32 N 0.44846 0.80129 0.40661
 C33 C 0.43732 0.79645 0.41336
 C34 C 0.41368 0.79634 0.43691
 N35 N 0.40686 0.80111 0.44803
 C36 C 0.41395 0.81196 0.45310
 H37 H 0.43162 0.83785 0.46227
 H38 H 0.46233 0.83813 0.43148
 H39 H 0.46228 0.81818 0.41091
 H40 H 0.43090 0.78809 0.40998
 H41 H 0.41034 0.78800 0.43044
 H42 H 0.41106 0.81795 0.46193
 C43 C 0.93309 0.92257 0.80715
 C44 C 0.92291 0.93267 0.80716
 C45 C 0.92285 0.94266 0.81715
 C46 C 0.93297 0.94267 0.82729
 C47 C 0.94295 0.93272 0.82727
 C48 C 0.94302 0.92259 0.81711
 C49 C 0.93537 0.91132 0.79902
 N50 N 0.94651 0.90433 0.80375
 C51 C 0.95118 0.91135 0.81488
 C52 C 0.95104 0.93494 0.83851
 N53 N 0.94628 0.94607 0.84552
 C54 C 0.93515 0.95080 0.83853
 C55 C 0.91157 0.95077 0.81493
 N56 N 0.90476 0.94593 0.80385
 C57 C 0.91166 0.93484 0.79904
 H58 H 0.92903 0.90851 0.79046
 H59 H 0.95978 0.90862 0.82121
 H60 H 0.95972 0.92868 0.84120
 H61 H 0.92872 0.95931 0.84139
 H62 H 0.90837 0.95932 0.82120
 H63 H 0.90874 0.92876 0.79029
 C64 C 0.43442 -0.07560 0.30482
 C65 C 0.42437 -0.06536 0.30499
 C66 C 0.42474 -0.05522 0.31484
 C67 C 0.43520 -0.05516 0.32463
 C68 C 0.44509 -0.06525 0.32443
 C69 C 0.44470 -0.07553 0.31443
 C70 C 0.43628 -0.08704 0.29684
 N71 N 0.44749 -0.09408 0.30132
 C72 C 0.45264 -0.08691 0.31214
 C73 C 0.45352 -0.06303 0.33543
 N74 N 0.44899 -0.05183 0.34234
 C75 C 0.43778 -0.04695 0.33575
 C76 C 0.41346 -0.04706 0.31292
 N77 N 0.40622 -0.05197 0.30214
 C78 C 0.41287 -0.06318 0.29723
 H79 H 0.42974 -0.08985 0.28842
 H80 H 0.46129 -0.08977 0.31835
 H81 H 0.46227 -0.06920 0.33822
 H82 H 0.43164 -0.03835 0.33905
 H83 H 0.41073 -0.03820 0.31899
 H84 H 0.40939 -0.06955 0.28890
 C85 C 0.80489 0.31420 0.32464
 C86 C 0.80512 0.32461 0.31477
 C87 C 0.81529 0.32482 0.30498
 C88 C 0.82540 0.31464 0.30496
 C89 C 0.82519 0.30440 0.31472
 C90 C 0.81486 0.30418 0.32462
 C91 C 0.79662 0.31181 0.33575
 N92 N 0.80135 0.30060 0.34251
 C93 C 0.81251 0.29587 0.33572
 C94 C 0.83652 0.29635 0.31264
 N95 N 0.84364 0.30143 0.30185
 C96 C 0.83686 0.31262 0.29709
 C97 C 0.81328 0.33634 0.29712
 N98 N 0.80215 0.34315 0.30191
 C99 C 0.79711 0.33600 0.31271
 H100 H 0.78810 0.31810 0.33893
 H101 H 0.81858 0.28709 0.33867
 H102 H 0.83937 0.28747 0.31862
 H103 H 0.84023 0.31911 0.28879
 H104 H 0.81973 0.33971 0.28880
 H105 H 0.78828 0.33886 0.31869
 C106 C -0.18357 0.82615 0.80628
 C107 C -0.17343 0.81601 0.80630
 C108 C -0.17335 0.80606 0.81635
 C109 C -0.18342 0.80614 0.82653
 C110 C -0.19337 0.81612 0.82651
 C111 C -0.19346 0.82620 0.81628
 C112 C -0.18583 0.83737 0.79811
 N113 N -0.19692 0.84442 0.80284
 C114 C -0.20159 0.83746 0.81403
 C115 C -0.20141 0.81398 0.83780
 N116 N -0.19665 0.80287 0.84485
 C117 C -0.18558 0.79807 0.83783
 C118 C -0.16210 0.79792 0.81413
 N119 N -0.15531 0.80270 0.80299
 C120 C -0.16222 0.81377 0.79815
 H121 H -0.17960 0.84004 0.78942
 H122 H -0.21006 0.84035 0.82046
 H123 H -0.21006 0.82028 0.84050
 H124 H -0.17916 0.78955 0.84070
 H125 H -0.15888 0.78940 0.82044
 H126 H -0.15931 0.81982 0.78935
 C127 C 0.94459 0.32528 0.43423
 C128 C 0.94463 0.31519 0.42403
 C129 C 0.93488 0.30495 0.42414
 C130 C 0.92498 0.30463 0.43446
 C131 C 0.92496 0.31456 0.44451
 C132 C 0.93484 0.32498 0.44436
 C133 C 0.95246 0.33674 0.43635
 N134 N 0.94777 0.34359 0.44758
 C135 C 0.93692 0.33627 0.45248
 C136 C 0.91387 0.31207 0.45278
 N137 N 0.90713 0.30088 0.44797
 C138 C 0.91391 0.29627 0.43676
 C139 C 0.93699 0.29700 0.41275
 N140 N 0.94778 0.30215 0.40569
 C141 C 0.95252 0.31329 0.41256
 H142 H 0.96076 0.33986 0.42979
 H143 H 0.93077 0.33878 0.46127
 H144 H 0.91069 0.31826 0.46137
 H145 H 0.91098 0.28752 0.43063
 H146 H 0.93102 0.28814 0.40981
 H147 H 0.96082 0.31982 0.40926
 C148 C 0.44416 0.43545 0.82588
 C149 C 0.44411 0.42528 0.81577
 C150 C 0.43412 0.42529 0.80581
 C151 C 0.42402 0.43548 0.80583
 C152 C 0.42407 0.44547 0.81583
 C153 C 0.43422 0.44544 0.82592
 C154 C 0.45224 0.43760 0.83714
 N155 N 0.44750 0.44870 0.84420
 C156 C 0.43641 0.45350 0.83720
 C157 C 0.41278 0.45359 0.81373
 N158 N 0.40586 0.44877 0.80270
 C159 C 0.41270 0.43769 0.79781
 C160 C 0.43626 0.41396 0.79773
 N161 N 0.44730 0.40704 0.80256
 C162 C 0.45215 0.41393 0.81360
 H163 H 0.46070 0.43111 0.84000
 H164 H 0.43012 0.46216 0.83996
 H165 H 0.40983 0.46232 0.81985
 H166 H 0.40948 0.43140 0.78930
 H167 H 0.42996 0.41078 0.78923
 H168 H 0.46087 0.41092 0.81969
 C169 C 0.80622 0.92356 0.93391
 C170 C 0.80609 0.93366 0.92372
 C171 C 0.81602 0.94373 0.92358
 C172 C 0.82624 0.94380 0.93361
 C173 C 0.82634 0.93387 0.94361
 C174 C 0.81627 0.92364 0.94375
 C175 C 0.79818 0.91226 0.93624
 N176 N 0.80305 0.90529 0.94732
 C177 C 0.81418 0.91237 0.95191
 C178 C 0.83763 0.93618 0.95163
 N179 N 0.84455 0.94734 0.94679
 C180 C 0.83746 0.95200 0.93570
 C181 C 0.81367 0.95180 0.91230
 N182 N 0.80256 0.94686 0.90557
 C183 C 0.79788 0.93576 0.91253
 H184 H 0.78965 0.90932 0.92990
 H185 H 0.82052 0.90971 0.96053
 H186 H 0.84056 0.92979 0.96014
 H187 H 0.84008 0.96068 0.92938
 H188 H 0.81986 0.96038 0.90902
 H189 H 0.78914 0.92960 0.90968
 C190 C 0.30570 0.82596 0.31585
 C191 C 0.30578 0.81590 0.32609
 C192 C 0.31580 0.80593 0.32618
 C193 C 0.32591 0.80589 0.31604
 C194 C 0.32583 0.81583 0.30598
 C195 C 0.31564 0.82593 0.30591
 C196 C 0.29757 0.83721 0.31359
 N197 N 0.30228 0.84420 0.30245
 C198 C 0.31340 0.83717 0.29775
 C199 C 0.33711 0.81367 0.29791
 N200 N 0.34406 0.80265 0.30281
 C201 C 0.33723 0.79783 0.31391
 C202 C 0.31367 0.79791 0.33753
 N203 N 0.30260 0.80278 0.34437
 C204 C 0.29772 0.81379 0.33740
 H205 H 0.28909 0.84010 0.32001
 H206 H 0.31968 0.83988 0.28910
 H207 H 0.34004 0.81974 0.28914
 H208 H 0.34048 0.78935 0.32025
 H209 H 0.31999 0.78941 0.34079
 H210 H 0.28897 0.81989 0.34032
 C211 C 0.80500 0.42635 0.43559
 C212 C 0.80522 0.43623 0.42519
 C213 C 0.81534 0.44610 0.42501
 C214 C 0.82536 0.44625 0.43524
 C215 C 0.82514 0.43654 0.44545
 C216 C 0.81490 0.42651 0.44564
 C217 C 0.79681 0.41513 0.43797
 N218 N 0.80153 0.40845 0.44921
 C219 C 0.81259 0.41539 0.45396
 C220 C 0.83641 0.43874 0.45351
 N221 N 0.84365 0.44961 0.44850
 C222 C 0.83677 0.45422 0.43726
 C223 C 0.81342 0.45391 0.41348
 N224 N 0.80237 0.44902 0.40662
 C225 C 0.79730 0.43820 0.41376
 H226 H 0.78835 0.41183 0.43168
 H227 H 0.81862 0.41254 0.46276
 H228 H 0.83900 0.43256 0.46228
 H229 H 0.83981 0.46250 0.43062
 H230 H 0.81966 0.46248 0.41031
 H231 H 0.78873 0.43192 0.41067
 C232 C 0.93399 0.82526 -0.05649
 C233 C 0.92393 0.81503 -0.05658
 C234 C 0.92410 0.80503 -0.06657
 C235 C 0.93433 0.80510 -0.07659
 C236 C 0.94419 0.81516 -0.07651
 C237 C 0.94404 0.82533 -0.06639
 C238 C 0.93605 0.83659 -0.04838
 N239 N 0.94709 0.84356 -0.05313
 C240 C 0.95203 0.83670 -0.06416
 C241 C 0.95237 0.81304 -0.08771
 N242 N 0.94777 0.80186 -0.09475
 C243 C 0.93667 0.79700 -0.08782
 C244 C 0.91287 0.79681 -0.06450
 N245 N 0.90587 0.80158 -0.05349
 C246 C 0.91261 0.81272 -0.04859
 H247 H 0.92969 0.83972 -0.03991
 H248 H 0.96079 0.83975 -0.07017
 H249 H 0.96099 0.81941 -0.09036
 H250 H 0.93032 0.78844 -0.09074
 H251 H 0.91002 0.78803 -0.07061
 H252 H 0.90932 0.81898 -0.04009
 C253 C 0.30442 0.32465 0.81453
 C254 C 0.30420 0.31437 0.82453
 C255 C 0.31423 0.30441 0.82470
 C256 C 0.32465 0.30461 0.81488
 C257 C 0.32485 0.31473 0.80501
 C258 C 0.31466 0.32483 0.80483
 C259 C 0.29638 0.33599 0.81233
 N260 N 0.30148 0.34309 0.80153
 C261 C 0.31266 0.33629 0.79687
 C262 C 0.33638 0.31273 0.79724
 N263 N 0.34320 0.30164 0.80216
 C264 C 0.33606 0.29662 0.81297
 C265 C 0.31184 0.29622 0.83589
 N266 N 0.30061 0.30099 0.84254
 C267 C 0.29588 0.31209 0.83561
 H268 H 0.28751 0.33887 0.81826
 H269 H 0.31918 0.33965 0.78860
 H270 H 0.33975 0.31915 0.78888
 H271 H 0.33894 0.28783 0.81905
 H272 H 0.31812 0.28773 0.83921
 H273 H 0.28709 0.31818 0.83844
 C274 C 0.17816 0.56118 0.55149
 C275 C 0.18828 0.57134 0.55166
 C276 C 0.19811 0.57133 0.56179
 C277 C 0.19794 0.56115 0.57190
 C278 C 0.18795 0.55114 0.57173
 C279 C 0.17800 0.55114 0.56144
 C280 C 0.16687 0.55919 0.54338
 N281 N 0.15982 0.54818 0.54818
 C282 C 0.16661 0.54319 0.55922
 C283 C 0.18980 0.54313 0.58314
 N284 N 0.20068 0.54802 0.59026
 C285 C 0.20571 0.55905 0.58341
 C286 C 0.20609 0.58278 0.55987
 N287 N 0.20133 0.58978 0.54884
 C288 C 0.19043 0.58280 0.54377
 H289 H 0.16394 0.56543 0.53474
 H290 H 0.16324 0.53475 0.56554
 H291 H 0.18358 0.53444 0.58607
 H292 H 0.21411 0.56541 0.58679
 H293 H 0.21441 0.58604 0.56636
 H294 H 0.18439 0.58587 0.53504
 C295 C 0.57212 0.68862 0.05214
 C296 C 0.56193 0.67852 0.05224
 C297 C 0.55194 0.67869 0.06220
 C298 C 0.55196 0.68899 0.07219
 C299 C 0.56201 0.69893 0.07210
 C300 C 0.57216 0.69875 0.06200
 C301 C 0.58354 0.69055 0.04418
 N302 N 0.59054 0.70157 0.04899
 C303 C 0.58360 0.70664 0.05990
 C304 C 0.56001 0.70704 0.08340
 N305 N 0.54900 0.70226 0.09038
 C306 C 0.54401 0.69122 0.08354
 C307 C 0.54389 0.66730 0.06027
 N308 N 0.54875 0.66018 0.04937
 C309 C 0.55978 0.66702 0.04439
 H310 H 0.58676 0.68406 0.03582
 H311 H 0.58667 0.71537 0.06598
 H312 H 0.56625 0.71569 0.08638
 H313 H 0.53555 0.68491 0.08686
 H314 H 0.53521 0.66438 0.06644
 H315 H 0.56612 0.66364 0.03600
 C316 C 0.68649 0.19723 0.67645
 C317 C 0.67661 0.19747 0.68681
 C318 C 0.67689 0.18772 0.69704
 C319 C 0.68704 0.17760 0.69709
 C320 C 0.69679 0.17736 0.68689
 C321 C 0.69650 0.18723 0.67648
 C322 C 0.68832 0.20497 0.66485
 N323 N 0.69917 0.19991 0.65782
 C324 C 0.70423 0.18905 0.66491
 C325 C 0.70484 0.16601 0.68908
 N326 N 0.70019 0.15932 0.70035
 C327 C 0.68931 0.16640 0.70530
 C328 C 0.66570 0.18995 0.70522
 N329 N 0.65860 0.20082 0.70021
 C330 C 0.66525 0.20549 0.68895
 H331 H 0.68191 0.21338 0.66156
 H332 H 0.71286 0.18285 0.66186
 H333 H 0.71312 0.16260 0.68262
 H334 H 0.68334 0.16355 0.71416
 H335 H 0.66290 0.18398 0.71410
 H336 H 0.66182 0.21378 0.68246
 C337 C 1.07290 0.06286 0.19669
 C338 C 1.06271 0.07296 0.19660
 C339 C 1.05270 0.07276 0.18665
 C340 C 1.05272 0.06245 0.17668
 C341 C 1.06273 0.05253 0.17676
 C342 C 1.07291 0.05272 0.18683
 C343 C 1.08428 0.06088 0.20468
 N344 N 1.09123 0.04981 0.19991
 C345 C 1.08430 0.04476 0.18898
 C346 C 1.06063 0.04435 0.16554
 N347 N 1.04952 0.04901 0.15847
 C348 C 1.04468 0.06014 0.16542
 C349 C 1.04462 0.08412 0.18862
 N350 N 1.04947 0.09124 0.19953
 C351 C 1.06054 0.08444 0.20446
 H352 H 1.08750 0.06734 0.21306
 H353 H 1.08733 0.03599 0.18295
 H354 H 1.06700 0.03574 0.16285
 H355 H 1.03620 0.06656 0.16247
 H356 H 1.03590 0.08700 0.18249
 H357 H 1.06687 0.08782 0.21287
 C358 C 0.06378 0.17664 1.05350
 C359 C 0.07420 0.18652 1.05363
 C360 C 0.07422 0.19665 1.06349
 C361 C 0.06384 0.19707 1.07334
 C362 C 0.05362 0.18737 1.07321
 C363 C 0.05358 0.17707 1.06323
 C364 C 0.06151 0.16522 1.04558
 N365 N 0.05019 0.15867 1.05030
 C366 C 0.04528 0.16590 1.06109
 C367 C 0.04541 0.18985 1.08431
 N368 N 0.05034 0.20088 1.09136
 C369 C 0.06168 0.20530 1.08451
 C370 C 0.08581 0.20437 1.06156
 N371 N 0.09285 0.19919 1.05077
 C372 C 0.08577 0.18826 1.04586
 H373 H 0.06793 0.16169 1.03731
 H374 H 0.03638 0.16322 1.06706
 H375 H 0.03662 0.18373 1.08696
 H376 H 0.06830 0.21364 1.08744
 H377 H 0.08889 0.21309 1.06765
 H378 H 0.08900 0.18175 1.03752
 C379 C 0.17837 0.69902 0.68852
 C380 C 0.18852 0.69924 0.67844
 C381 C 0.19858 0.68931 0.67834
 C382 C 0.19861 0.67900 0.68832
 C383 C 0.18861 0.67879 0.69827
 C384 C 0.17841 0.68888 0.69837
 C385 C 0.16690 0.70687 0.69060
 N386 N 0.15994 0.70176 0.70147
 C387 C 0.16696 0.69075 0.70630
 C388 C 0.19074 0.66727 0.70609
 N389 N 0.20178 0.66045 0.70112
 C390 C 0.20665 0.66760 0.69024
 C391 C 0.20652 0.69156 0.66697
 N392 N 0.20151 0.70260 0.66013
 C393 C 0.19050 0.70736 0.66712
 H394 H 0.16380 0.71559 0.68451
 H395 H 0.16373 0.68422 0.71463
 H396 H 0.18439 0.66386 0.71447
 H397 H 0.21533 0.66469 0.68406
 H398 H 0.21498 0.68526 0.66364
 H399 H 0.18423 0.71599 0.66415
 C400 C 1.18758 0.17792 0.19702
 C401 C 1.17744 0.18806 0.19703
 C402 C 1.17719 0.19785 0.18684
 C403 C 1.18707 0.19763 0.17648
 C404 C 1.19705 0.18767 0.17648
 C405 C 1.19733 0.17773 0.18683
 C406 C 1.18984 0.16669 0.20519
 N407 N 1.20073 0.15963 0.20021
 C408 C 1.20538 0.16637 0.18898
 C409 C 1.20480 0.18958 0.16494
 N410 N 1.19982 0.20050 0.15775
 C411 C 1.18890 0.20542 0.16493
 C412 C 1.16583 0.20587 0.18900
 N413 N 1.15916 0.20115 0.20024
 C414 C 1.16625 0.19025 0.20521
 H415 H 1.18388 0.16382 0.21404
 H416 H 1.21368 0.16299 0.18251
 H417 H 1.21322 0.18306 0.16201
 H418 H 1.18251 0.21399 0.16214
 H419 H 1.16241 0.21418 0.18254
 H420 H 1.16342 0.18423 0.21405
 C421 C 0.67528 1.05443 0.56409
 C422 C 0.68553 1.05410 0.57406
 C423 C 0.69550 1.06413 0.57426
 C424 C 0.69533 1.07465 0.56449
 C425 C 0.68526 1.07495 0.55467
 C426 C 0.67515 1.06477 0.55445
 C427 C 0.66394 1.04643 0.56187
 N428 N 0.65689 1.05165 0.55110
 C429 C 0.66372 1.06287 0.54649
 C430 C 0.68731 1.08655 0.54696
 N431 N 0.69843 1.09346 0.55182
 C432 C 0.70333 1.08606 0.56261
 C433 C 0.70366 1.06163 0.58542
 N434 N 0.69888 1.05035 0.59203
 C435 C 0.68778 1.04568 0.58510
 H436 H 0.66103 1.03750 0.56774
 H437 H 0.66040 1.06948 0.53826
 H438 H 0.68077 1.08970 0.53867
 H439 H 0.71204 1.08860 0.56887
 H440 H 0.71215 1.06789 0.58874
 H441 H 0.68169 1.03687 0.58791
 C442 C 0.56223 0.55106 0.17794
 C443 C 0.57220 0.55127 0.18821
 C444 C 0.57192 0.56137 0.19810
 C445 C 0.56164 0.57137 0.19789
 C446 C 0.55181 0.57116 0.18777
 C447 C 0.55209 0.56092 0.17774
 C448 C 0.56044 0.54295 0.16659
 N449 N 0.54947 0.54764 0.15948
 C450 C 0.54431 0.55864 0.16627
 C451 C 0.54365 0.58248 0.18964
 N452 N 0.54829 0.58958 0.20065
 C453 C 0.55929 0.58281 0.20575
 C454 C 0.58322 0.55953 0.20623
 N455 N 0.59038 0.54857 0.20152
 C456 C 0.58367 0.54346 0.19049
 H457 H 0.56677 0.53435 0.16369
 H458 H 0.53581 0.56486 0.16288
 H459 H 0.53505 0.58538 0.18334
 H460 H 0.56548 0.58621 0.21425
 H461 H 0.58605 0.56582 0.21487
 H462 H 0.58711 0.53499 0.18425
 C463 C 0.67747 0.68808 0.19754
 C464 C 0.68768 0.67799 0.19744
 C465 C 0.69766 0.67818 0.18746
 C466 C 0.69761 0.68847 0.17747
 C467 C 0.68755 0.69840 0.17756
 C468 C 0.67741 0.69820 0.18766
 C469 C 0.66606 0.68999 0.20551
 N470 N 0.65905 0.70102 0.20070
 C471 C 0.66597 0.70609 0.18977
 C472 C 0.68953 0.70652 0.16625
 N473 N 0.70055 0.70177 0.15927
 C474 C 0.70556 0.69073 0.16611
 C475 C 0.70574 0.66682 0.18942
 N476 N 0.70091 0.65970 0.20034
 C477 C 0.68986 0.66651 0.20530
 H478 H 0.66286 0.68351 0.21389
 H479 H 0.66289 0.71482 0.18370
 H480 H 0.68328 0.71517 0.16328
 H481 H 0.71403 0.68444 0.16280
 H482 H 0.71443 0.66392 0.18325
 H483 H 0.68355 0.66312 0.21372
 C484 C 0.17639 0.06314 1.05320
 C485 C 0.18636 0.07345 1.05354
 C486 C 0.19626 0.07335 1.06359
 C487 C 0.19632 0.06294 1.07347
 C488 C 0.18647 0.05279 1.07315
 C489 C 0.17645 0.05288 1.06292
 C490 C 0.16513 0.06111 1.04507
 N491 N 0.15831 0.04986 1.04962
 C492 C 0.16521 0.04476 1.06054
 C493 C 0.18858 0.04451 1.08432
 N494 N 0.19947 0.04938 1.09144
 C495 C 0.20426 0.06066 1.08482
 C496 C 0.20411 0.08492 1.06182
 N497 N 0.19920 0.09206 1.05095
 C498 C 0.18834 0.08507 1.04583
 H499 H 0.16208 0.06747 1.03655
 H500 H 0.16204 0.03608 1.06665
 H501 H 0.18254 0.03565 1.08709
 H502 H 0.21261 0.06705 1.08826
 H503 H 0.21248 0.08811 1.06828
 H504 H 0.18222 0.08822 1.03719
 C505 C 0.57405 0.19636 0.56374
 C506 C 0.56371 0.19664 0.57365
 C507 C 0.55365 0.18670 0.57362
 C508 C 0.55376 0.17636 0.56369
 C509 C 0.56393 0.17609 0.55392
 C510 C 0.57416 0.18614 0.55396
 C511 C 0.58549 0.20427 0.56169
 N512 N 0.59257 0.19911 0.55091
 C513 C 0.58567 0.18801 0.54614
 C514 C 0.56190 0.16456 0.54611
 N515 N 0.55075 0.15779 0.55091
 C516 C 0.54571 0.16499 0.56167
 C517 C 0.54543 0.18906 0.58475
 N518 N 0.55025 0.20018 0.59158
 C519 C 0.56143 0.20489 0.58481
 H520 H 0.58865 0.21289 0.56789
 H521 H 0.58878 0.18167 0.53763
 H522 H 0.56838 0.16110 0.53785
 H523 H 0.53690 0.16213 0.56770
 H524 H 0.53665 0.18301 0.58769
 H525 H 0.56776 0.21339 0.58802
 C526 C 0.07107 0.56055 0.69889
 C527 C 0.06076 0.57051 0.69865
 C528 C 0.05091 0.57021 0.68854
 C529 C 0.05121 0.55990 0.67857
 C530 C 0.06138 0.55008 0.67882
 C531 C 0.07137 0.55040 0.68906
 C532 C 0.08241 0.55884 0.70699
 N533 N 0.08962 0.54789 0.70232
 C534 C 0.08289 0.54267 0.69135
 C535 C 0.05963 0.54193 0.66750
 N536 N 0.04865 0.54655 0.66037
 C537 C 0.04344 0.55755 0.66712
 C538 C 0.04275 0.58154 0.69033
 N539 N 0.04739 0.58874 0.70127
 C540 C 0.05841 0.58202 0.70641
 H541 H 0.08525 0.56521 0.71557
 H542 H 0.08638 0.53419 0.68514
 H543 H 0.06601 0.53334 0.66462
 H544 H 0.03494 0.56375 0.66369
 H545 H 0.03414 0.58438 0.68400
 H546 H 0.06463 0.58550 0.71486
 C547 C 0.67843 0.55078 0.06156
 C548 C 0.68852 0.55062 0.07170
 C549 C 0.69855 0.56058 0.07184
 C550 C 0.69861 0.57087 0.06183
 C551 C 0.68867 0.57102 0.05182
 C552 C 0.67849 0.56090 0.05168
 C553 C 0.66699 0.54289 0.05945
 N554 N 0.66007 0.54796 0.04853
 C555 C 0.66709 0.55898 0.04371
 C556 C 0.69082 0.58252 0.04398
 N557 N 0.70182 0.58939 0.04899
 C558 C 0.70664 0.58228 0.05992
 C559 C 0.70643 0.55838 0.08326
 N560 N 0.70140 0.54734 0.09010
 C561 C 0.69044 0.54254 0.08304
 H562 H 0.66389 0.53418 0.06555
 H563 H 0.66388 0.56547 0.03534
 H564 H 0.68451 0.58589 0.03555
 H565 H 0.71528 0.58523 0.06614
 H566 H 0.71485 0.56471 0.08663
 H567 H 0.68418 0.53389 0.08600
 C568 C 0.06267 0.69798 0.57225
 C569 C 0.07269 0.69795 0.56202
 C570 C 0.07257 0.68791 0.55208
 C571 C 0.06243 0.67776 0.55221
 C572 C 0.05254 0.67780 0.56227
 C573 C 0.05266 0.68799 0.57237
 C574 C 0.06072 0.70602 0.58362
 N575 N 0.04977 0.70116 0.59066
 C576 C 0.04478 0.69013 0.58380
 C577 C 0.04454 0.66636 0.56031
 N578 N 0.04937 0.65936 0.54931
 C579 C 0.06031 0.66632 0.54431
 C580 C 0.08389 0.68989 0.54403
 N581 N 0.09093 0.70089 0.54883
 C582 C 0.08409 0.70589 0.55984
 H583 H 0.06692 0.71471 0.58657
 H584 H 0.03634 0.68379 0.58712
 H585 H 0.03616 0.66313 0.56674
 H586 H 0.06640 0.66324 0.53562
 H587 H 0.08685 0.68364 0.53540
 H588 H 0.08743 0.71435 0.56615
 C589 C 0.56437 1.05472 0.67454
 C590 C 0.57425 1.05464 0.68490
 C591 C 0.57392 1.06450 0.69502
 C592 C 0.56369 1.07456 0.69493
 C593 C 0.55401 1.07464 0.68474
 C594 C 0.55434 1.06463 0.67446
 C595 C 0.56250 1.04678 0.66310
 N596 N 0.55153 1.05157 0.65591
 C597 C 0.54655 1.06256 0.66299
 C598 C 0.54582 1.08588 0.68687
 N599 N 0.55024 1.09279 0.69817
 C600 C 0.56124 1.08574 0.70310
 C601 C 0.58503 1.06233 0.70332
 N602 N 0.59214 1.05138 0.69851
 C603 C 0.58557 1.04661 0.68724
 H604 H 0.56902 1.03832 0.66029
 H605 H 0.53795 1.06888 0.66016
 H606 H 0.53732 1.08866 0.68041
 H607 H 0.56747 1.08856 0.71175
 H608 H 0.58774 1.06835 0.71219
 H609 H 0.58899 1.03820 0.68091
 C610 C 0.44514 0.32550 0.93458
 C611 C 0.44522 0.31531 0.92447
 C612 C 0.43548 0.30507 0.92467
 C613 C 0.42554 0.30485 0.93496
 C614 C 0.42548 0.31488 0.94491
 C615 C 0.43536 0.32530 0.94468
 C616 C 0.45299 0.33700 0.93660
 N617 N 0.44826 0.34396 0.94775
 C618 C 0.43741 0.33669 0.95268
 C619 C 0.41436 0.31248 0.95315
 N620 N 0.40764 0.30124 0.94843
 C621 C 0.41446 0.29652 0.93729
 C622 C 0.43760 0.29701 0.91335
 N623 N 0.44841 0.30210 0.90626
 C624 C 0.45313 0.31330 0.91304
 H625 H 0.46131 0.34005 0.93003
 H626 H 0.43122 0.33929 0.96143
 H627 H 0.41114 0.31875 0.96167
 H628 H 0.41156 0.28771 0.93124
 H629 H 0.43164 0.28812 0.91049
 H630 H 0.46143 0.31980 0.90969
 C631 C 0.94422 0.43500 0.32625
 C632 C 0.94420 0.42491 0.31605
 C633 C 0.93421 0.42499 0.30609
 C634 C 0.92408 0.43515 0.30621
 C635 C 0.92412 0.44507 0.31628
 C636 C 0.93429 0.44499 0.32635
 C637 C 0.95231 0.43707 0.33753
 N638 N 0.94757 0.44814 0.34465
 C639 C 0.93649 0.45298 0.33769
 C640 C 0.91283 0.45319 0.31423
 N641 N 0.90592 0.44846 0.30316
 C642 C 0.91278 0.43742 0.29819
 C643 C 0.93638 0.41372 0.29793
 N644 N 0.94743 0.40678 0.30270
 C645 C 0.95227 0.41360 0.31380
 H646 H 0.96093 0.43072 0.34019
 H647 H 0.93005 0.46146 0.34064
 H648 H 0.90987 0.46189 0.32041
 H649 H 0.90957 0.43119 0.28963
 H650 H 0.93008 0.41059 0.28941
 H651 H 0.96100 0.41056 0.31986
 C652 C 0.30552 0.93480 0.42422
 C653 C 0.30553 0.92470 0.43442
 C654 C 0.31532 0.92500 0.44457
 C655 C 0.32520 0.93540 0.44469
 C656 C 0.32518 0.94529 0.43465
 C657 C 0.31525 0.94499 0.42433
 C658 C 0.29761 0.93675 0.41279
 N659 N 0.30226 0.94794 0.40578
 C660 C 0.31313 0.95297 0.41296
 C661 C 0.33626 0.95364 0.43695
 N662 N 0.34316 0.94910 0.44820
 C663 C 0.33627 0.93788 0.45294
 C664 C 0.31326 0.91369 0.45270
 N665 N 0.30245 0.90651 0.44774
 C666 C 0.29766 0.91322 0.43655
 H667 H 0.28930 0.93012 0.40983
 H668 H 0.31928 0.96175 0.41030
 H669 H 0.33894 0.96230 0.43063
 H670 H 0.33912 0.93153 0.46150
 H671 H 0.31926 0.91091 0.46156
 H672 H 0.28933 0.90978 0.43015
 O673 O 0.21319 0.51801 0.74919
 O674 O 0.21767 0.51630 0.77240
 O675 O 0.24894 0.53693 0.73256
 O676 O 0.27138 0.53287 0.73183
 O677 O 0.23194 0.50096 0.71347
 O678 O 0.23291 0.47712 0.71851
 O679 O 0.28528 0.49979 0.76759
 O680 O 0.28141 0.52310 0.76495
 O681 O 0.25088 0.48263 0.78543
 O682 O 0.22626 0.48351 0.78090
 O683 O 0.26729 0.46461 0.75076
 O684 O 0.26656 0.46925 0.72641
 O685 O 0.28529 0.48325 0.75124
 O686 O 0.28024 0.48468 0.72588
 O687 O 0.25090 0.46443 0.76714
 O688 O 0.22572 0.46955 0.76575
 O689 O 0.26746 0.49890 0.78529
 O690 O 0.26280 0.52372 0.78098
 O691 O 0.21302 0.50125 0.73302
 O692 O 0.21821 0.47695 0.73404
 O693 O 0.24832 0.51745 0.71329
 O694 O 0.27303 0.51536 0.71878
 O695 O 0.23227 0.53687 0.74870
 O696 O 0.23541 0.53145 0.77329
 Zr697 Zr 0.23305 0.51705 0.75723
 O698 O 0.24499 0.50479 0.77029
 Zr699 Zr 0.25685 0.51690 0.73302
 O700 O 0.26999 0.50508 0.74528
 Zr701 Zr 0.23286 0.49285 0.73334
 O702 O 0.24512 0.47971 0.74522
 Zr703 Zr 0.26568 0.50825 0.76603
 O704 O 0.25381 0.52159 0.75379
 Zr705 Zr 0.24188 0.48396 0.76598
 O706 O 0.22857 0.49615 0.75409
 Zr707 Zr 0.26586 0.48423 0.74201
 O708 O 0.25359 0.49605 0.72863
 O709 O 0.23624 0.51359 0.73654
 O710 O 0.26257 0.48740 0.76273
 C711 C 0.20723 0.51092 0.73986
 C712 C 0.23933 0.54280 0.73933
 C713 C 0.23880 0.51047 0.70751
 C714 C 0.29100 0.48995 0.76101
 C715 C 0.26083 0.48911 0.79104
 C716 C 0.26071 0.45878 0.76051
 H717 H 0.24287 0.50702 0.77991
 H718 H 0.24296 0.47008 0.74295
 H719 H 0.23038 0.51944 0.73072
 H720 H 0.27959 0.50745 0.74322
 H721 H 0.27704 0.53179 0.76207
 H722 H 0.27827 0.53103 0.73895
 H723 H 0.22733 0.46317 0.75807
 H724 H 0.21361 0.47767 0.74301
 H725 H 0.27060 0.52331 0.78741
 H726 H 0.22819 0.53853 0.77246
 H727 H 0.25792 0.46403 0.72677
 H728 H 0.24207 0.47727 0.71425
 H729 H 0.21398 0.50685 0.77235
 H730 H 0.22706 0.49193 0.78645
 H731 H 0.27139 0.50696 0.71337
 H732 H 0.28673 0.49222 0.72770
 O733 O 0.21355 0.01834 0.24919
 O734 O 0.21795 0.01661 0.27245
 O735 O 0.24945 0.03692 0.23260
 O736 O 0.27187 0.03272 0.23198
 O737 O 0.23227 0.00099 0.21363
 O738 O 0.23308 -0.02284 0.21876
 O739 O 0.28548 -0.00035 0.26788
 O740 O 0.28177 0.02298 0.26514
 O741 O 0.25091 -0.01719 0.28570
 O742 O 0.22631 -0.01618 0.28110
 O743 O 0.26730 -0.03545 0.25114
 O744 O 0.26666 -0.03089 0.22676
 O745 O 0.28543 -0.01693 0.25158
 O746 O 0.28044 -0.01557 0.22620
 O747 O 0.25088 -0.03546 0.26749
 O748 O 0.22572 -0.03019 0.26598
 O749 O 0.26761 -0.00104 0.28554
 O750 O 0.26313 0.02380 0.28112
 O751 O 0.21332 0.00151 0.23310
 O752 O 0.21833 -0.02284 0.23426
 O753 O 0.24874 0.01739 0.21342
 O754 O 0.27344 0.01513 0.21897
 O755 O 0.23277 0.03702 0.24873
 O756 O 0.23578 0.03167 0.27335
 Zr757 Zr 0.23339 0.01723 0.25733
 O758 O 0.24522 0.00494 0.27046
 Zr759 Zr 0.25724 0.01685 0.23317
 O760 O 0.27028 0.00498 0.24551
 Zr761 Zr 0.23310 -0.00705 0.23353
 O762 O 0.24524 -0.02023 0.24548
 Zr763 Zr 0.26594 0.00825 0.26623
 O764 O 0.25418 0.02162 0.25393
 Zr765 Zr 0.24198 -0.01588 0.26621
 O766 O 0.22876 -0.00365 0.25425
 Zr767 Zr 0.26602 -0.01586 0.24230
 O768 O 0.25385 -0.00401 0.22885
 O769 O 0.23661 0.01367 0.23666
 O770 O 0.26270 -0.01260 0.26300
 C771 C 0.20758 0.01127 0.23984
 C772 C 0.23986 0.04287 0.23934
 C773 C 0.23917 0.01046 0.20765
 C774 C 0.29116 -0.01025 0.26135
 C775 C 0.26089 -0.01076 0.29131
 C776 C 0.26067 -0.04120 0.26090
 H777 H 0.24308 0.00722 0.28006
 H778 H 0.24302 -0.02985 0.24324
 H779 H 0.23081 0.01954 0.23081
 H780 H 0.27990 0.00727 0.24346
 H781 H 0.27747 0.03169 0.26221
 H782 H 0.27877 0.03083 0.23909
 H783 H 0.22732 -0.03661 0.25834
 H784 H 0.21370 -0.02204 0.24320
 H785 H 0.27091 0.02335 0.28758
 H786 H 0.22860 0.03878 0.27247
 H787 H 0.25798 -0.03607 0.22713
 H788 H 0.24225 -0.02277 0.21451
 H789 H 0.21415 0.00721 0.27237
 H790 H 0.22712 -0.00771 0.28658
 H791 H 0.27174 0.00673 0.21357
 H792 H 0.28696 -0.00805 0.22800
 O793 O 0.50062 0.71287 0.23205
 O794 O 0.47738 0.71723 0.23377
 O795 O 0.51707 0.74897 0.21345
 O796 O 0.51775 0.77147 0.21763
 O797 O 0.53623 0.73174 0.24920
 O798 O 0.53117 0.73257 0.27292
 O799 O 0.48183 0.78505 0.25055
 O800 O 0.48451 0.78130 0.22734
 O801 O 0.46415 0.75032 0.26745
 O802 O 0.46881 0.72561 0.26646
 O803 O 0.49870 0.76688 0.28553
 O804 O 0.52303 0.76634 0.28099
 O805 O 0.49816 0.78507 0.26705
 O806 O 0.52359 0.78008 0.26563
 O807 O 0.48240 0.75034 0.28560
 O808 O 0.48395 0.72509 0.28038
 O809 O 0.46422 0.76706 0.25134
 O810 O 0.46857 0.76253 0.22660
 O811 O 0.51677 0.71267 0.24876
 O812 O 0.51567 0.71774 0.27301
 O813 O 0.53634 0.74828 0.23287
 O814 O 0.53073 0.77308 0.23510
 O815 O 0.50102 0.73215 0.21340
 O816 O 0.47639 0.73513 0.21879
 Zr817 Zr 0.49247 0.73277 0.23313
 O818 O 0.47933 0.74461 0.24538
 Zr819 Zr 0.51657 0.75677 0.23344
 O820 O 0.50422 0.76984 0.24525
 Zr821 Zr 0.51634 0.73254 0.25725
 O822 O 0.50439 0.74472 0.27038
 Zr823 Zr 0.48350 0.76542 0.24204
 O824 O 0.49581 0.75365 0.22872
 Zr825 Zr 0.48365 0.74139 0.26611
 O826 O 0.49561 0.72815 0.25391
 Zr827 Zr 0.50749 0.76560 0.26600
 O828 O 0.52095 0.75340 0.25420
 O829 O 0.51314 0.73605 0.23662
 O830 O 0.48680 0.76220 0.26280
 C831 C 0.50998 0.70689 0.23908
 C832 C 0.51035 0.73933 0.20754
 C833 C 0.54216 0.73870 0.23976
 C834 C 0.48837 0.79079 0.26038
 C835 C 0.45850 0.76032 0.26105
 C836 C 0.48898 0.76020 0.29129
 H837 H 0.46973 0.74244 0.24314
 H838 H 0.50666 0.74252 0.27996
 H839 H 0.51899 0.73023 0.23076
 H840 H 0.50624 0.77950 0.24295
 H841 H 0.48742 0.77697 0.21867
 H842 H 0.51054 0.77831 0.21945
 H843 H 0.49162 0.72671 0.28675
 H844 H 0.50674 0.71306 0.27222
 H845 H 0.46209 0.77032 0.22705
 H846 H 0.47728 0.72793 0.21169
 H847 H 0.52279 0.75758 0.28606
 H848 H 0.53538 0.74180 0.27284
 H849 H 0.47744 0.71347 0.24315
 H850 H 0.46326 0.72644 0.25807
 H851 H 0.53618 0.77139 0.24344
 H852 H 0.52171 0.78667 0.25819
 O853 O 0.01794 0.74847 0.71349
 O854 O 0.01623 0.77179 0.71799
 O855 O 0.03659 0.73166 0.74924
 O856 O 0.03247 0.73089 0.77166
 O857 O 0.00071 0.71262 0.73213
 O858 O -0.02299 0.71777 0.73299
 O859 O -0.00042 0.76686 0.78554
 O860 O 0.02280 0.76415 0.78173
 O861 O -0.01733 0.78489 0.75112
 O862 O -0.01640 0.78039 0.72649
 O863 O -0.03544 0.75013 0.76744
 O864 O -0.03090 0.72561 0.76663
 O865 O -0.01694 0.75048 0.78547
 O866 O -0.01560 0.72502 0.78037
 O867 O -0.03550 0.76661 0.75108
 O868 O -0.03036 0.76521 0.72591
 O869 O -0.00120 0.78467 0.76776
 O870 O 0.02353 0.78029 0.76316
 O871 O 0.00120 0.73227 0.71323
 O872 O -0.02303 0.73342 0.71832
 O873 O 0.01711 0.71235 0.74853
 O874 O 0.01498 0.71782 0.77324
 O875 O 0.03662 0.74795 0.73265
 O876 O 0.03127 0.77264 0.73577
 Zr877 Zr 0.01690 0.75653 0.73336
 O878 O 0.00470 0.76966 0.74528
 Zr879 Zr 0.01661 0.73215 0.75709
 O880 O 0.00483 0.74447 0.77022
 Zr881 Zr -0.00727 0.73261 0.73303
 O882 O -0.02036 0.74454 0.74528
 Zr883 Zr 0.00807 0.76531 0.76596
 O884 O 0.02135 0.75302 0.75411
 Zr885 Zr -0.01604 0.76538 0.74209
 O886 O -0.00390 0.75344 0.72879
 Zr887 Zr -0.01593 0.74125 0.76603
 O888 O -0.00416 0.72782 0.75376
 O889 O 0.01338 0.73575 0.73649
 O890 O -0.01270 0.76205 0.76278
 C891 C 0.01089 0.73911 0.70750
 C892 C 0.04248 0.73850 0.73969
 C893 C 0.01014 0.70659 0.73900
 C894 C -0.01026 0.76027 0.79122
 C895 C -0.01091 0.79048 0.76111
 C896 C -0.04118 0.75997 0.76088
 H897 H 0.00696 0.77931 0.74318
 H898 H -0.02995 0.74229 0.74309
 H899 H 0.01922 0.72990 0.73065
 H900 H 0.00715 0.74237 0.77982
 H901 H 0.03146 0.76125 0.77738
 H902 H 0.03063 0.73803 0.77857
 H903 H -0.03675 0.75752 0.72749
 H904 H -0.02224 0.74242 0.71373
 H905 H 0.02311 0.78674 0.77097
 H906 H 0.03834 0.77180 0.72856
 H907 H -0.03614 0.72609 0.75802
 H908 H -0.02294 0.71351 0.74216
 H909 H 0.00685 0.77174 0.71424
 H910 H -0.00798 0.78593 0.72732
 H911 H 0.00659 0.71242 0.77157
 H912 H -0.00809 0.72680 0.78688
 O913 O 0.03619 0.01748 0.00110
 O914 O 0.03179 0.01576 -0.02216
 O915 O 0.00049 0.03648 0.01759
 O916 O -0.02199 0.03252 0.01815
 O917 O 0.01724 0.00044 0.03672
 O918 O 0.01619 -0.02339 0.03167
 O919 O -0.03588 -0.00053 -0.01765
 O920 O -0.03195 0.02278 -0.01494
 O921 O -0.00147 -0.01774 -0.03532
 O922 O 0.02317 -0.01692 -0.03067
 O923 O -0.01809 -0.03576 -0.00077
 O924 O -0.01741 -0.03114 0.02364
 O925 O -0.03601 -0.01709 -0.00130
 O926 O -0.03108 -0.01571 0.02408
 O927 O -0.00162 -0.03595 -0.01707
 O928 O 0.02356 -0.03094 -0.01555
 O929 O -0.01800 -0.00143 -0.03524
 O930 O -0.01327 0.02338 -0.03090
 O931 O 0.03623 0.00072 0.01728
 O932 O 0.03098 -0.02358 0.01619
 O933 O 0.00092 0.01699 0.03684
 O934 O -0.02377 0.01499 0.03125
 O935 O 0.01720 0.03637 0.00150
 O936 O 0.01413 0.03101 -0.02311
 Zr937 Zr 0.01636 0.01657 -0.00705
 O938 O 0.00443 0.00438 -0.02016
 Zr939 Zr -0.00753 0.01649 0.01707
 O940 O -0.02067 0.00471 0.00475
 Zr941 Zr 0.01637 -0.00765 0.01684
 O942 O 0.00412 -0.02074 0.00490
 Zr943 Zr -0.01626 0.00790 -0.01597
 O944 O -0.00439 0.02119 -0.00370
 Zr945 Zr 0.00747 -0.01646 -0.01584
 O946 O 0.02077 -0.00433 -0.00388
 Zr947 Zr -0.01662 -0.01616 0.00803
 O948 O -0.00437 -0.00439 0.02146
 O949 O 0.01307 0.01310 0.01363
 O950 O -0.01323 -0.01297 -0.01267
 C951 C 0.04208 0.01039 0.01049
 C952 C 0.01016 0.04231 0.01086
 C953 C 0.01040 0.00998 0.04265
 C954 C -0.04165 -0.01038 -0.01111
 C955 C -0.01138 -0.01124 -0.04096
 C956 C -0.01150 -0.04158 -0.01051
 H957 H 0.00660 0.00661 -0.02977
 H958 H 0.00624 -0.03038 0.00717
 H959 H 0.01892 0.01892 0.01947
 H960 H -0.03027 0.00710 0.00677
 H961 H -0.02757 0.03145 -0.01205
 H962 H -0.02893 0.03064 0.01108
 H963 H 0.02191 -0.03731 -0.00787
 H964 H 0.03563 -0.02285 0.00725
 H965 H -0.02106 0.02300 -0.03737
 H966 H 0.02139 0.03805 -0.02225
 H967 H -0.00882 -0.03645 0.02324
 H968 H 0.00700 -0.02323 0.03588
 H969 H 0.03549 0.00633 -0.02205
 H970 H 0.02239 -0.00851 -0.03625
 H971 H -0.02220 0.00655 0.03664
 H972 H -0.03752 -0.00812 0.02225
 O973 O 0.03664 0.51732 0.50137
 O974 O 0.03221 0.51585 0.47814
 O975 O 0.00090 0.53615 0.51810
 O976 O -0.02154 0.53212 0.51875
 O977 O 0.01779 0.49993 0.53690
 O978 O 0.01679 0.47617 0.53164
 O979 O -0.03545 0.49945 0.48266
 O980 O -0.03152 0.52270 0.48550
 O981 O -0.00102 0.48240 0.46473
 O982 O 0.02360 0.48316 0.46935
 O983 O -0.01758 0.46404 0.49917
 O984 O -0.01689 0.46841 0.52357
 O985 O -0.03554 0.48275 0.49887
 O986 O -0.03050 0.48387 0.52425
 O987 O -0.00114 0.46400 0.48284
 O988 O 0.02404 0.46903 0.48436
 O989 O -0.01758 0.49868 0.46498
 O990 O -0.01287 0.52344 0.46953
 O991 O 0.03676 0.50041 0.51739
 O992 O 0.03152 0.47612 0.51612
 O993 O 0.00145 0.51646 0.53719
 O994 O -0.02326 0.51447 0.53163
 O995 O 0.01759 0.53620 0.50198
 O996 O 0.01451 0.53103 0.47733
 Zr997 Zr 0.01679 0.51647 0.49328
 O998 O 0.00486 0.50436 0.48008
 Zr999 Zr -0.00704 0.51613 0.51744
 O1000 O -0.02019 0.50446 0.50504
 Zr1001 Zr 0.01690 0.49204 0.51695
 O1002 O 0.00463 0.47904 0.50493
 Zr1003 Zr -0.01582 0.50783 0.48433
 O1004 O -0.00396 0.52102 0.49671
 Zr1005 Zr 0.00792 0.48349 0.48422
 O1006 O 0.02124 0.49554 0.49624
 Zr1007 Zr -0.01611 0.48356 0.50813
 O1008 O -0.00384 0.49522 0.52164
 O1009 O 0.01356 0.51281 0.51393
 O1010 O -0.01277 0.48693 0.48745
 C1011 C 0.04257 0.51014 0.51065
 C1012 C 0.01053 0.54205 0.51139
 C1013 C 0.01094 0.50940 0.54293
 C1014 C -0.04123 0.48957 0.48916
 C1015 C -0.01094 0.48895 0.45915
 C1016 C -0.01099 0.45830 0.48938
 H1017 H 0.00702 0.50669 0.47049
 H1018 H 0.00676 0.46939 0.50711
 H1019 H 0.01942 0.51859 0.51981
 H1020 H -0.02978 0.50682 0.50711
 H1021 H -0.02714 0.53134 0.48847
 H1022 H -0.02842 0.53036 0.51158
 H1023 H 0.02240 0.46259 0.49198
 H1024 H 0.03614 0.47694 0.50718
 H1025 H -0.02065 0.52311 0.46307
 H1026 H 0.02174 0.53809 0.47825
 H1027 H -0.00825 0.46318 0.52319
 H1028 H 0.00760 0.47626 0.53586
 H1029 H 0.03589 0.50640 0.47812
 H1030 H 0.02283 0.49164 0.46387
 H1031 H -0.02164 0.50602 0.53698
 H1032 H -0.03696 0.49146 0.52250
 O1033 O 0.46377 -0.00082 0.48184
 O1034 O 0.46816 0.02255 0.48361
 O1035 O 0.49955 -0.01736 0.46308
 O1036 O 0.52202 -0.01790 0.46712
 O1037 O 0.48263 -0.03660 0.49885
 O1038 O 0.48356 -0.03157 0.52260
 O1039 O 0.53575 0.01800 0.50012
 O1040 O 0.53194 0.01533 0.47692
 O1041 O 0.50120 0.03574 0.51710
 O1042 O 0.47662 0.03103 0.51627
 O1043 O 0.51780 0.00098 0.53512
 O1044 O 0.51719 -0.02346 0.53052
 O1045 O 0.53582 0.00153 0.51655
 O1046 O 0.53084 -0.02397 0.51514
 O1047 O 0.50136 0.01737 0.53527
 O1048 O 0.47618 0.01582 0.53017
 O1049 O 0.51781 0.03570 0.50093
 O1050 O 0.51324 0.03133 0.47623
 O1051 O 0.46364 -0.01709 0.49851
 O1052 O 0.46878 -0.01602 0.52275
 O1053 O 0.49903 -0.03669 0.48245
 O1054 O 0.52372 -0.03108 0.48457
 O1055 O 0.48283 -0.00121 0.46314
 O1056 O 0.48590 0.02351 0.46851
 Zr1057 Zr 0.48359 0.00737 0.48286
 O1058 O 0.49546 0.02052 0.49509
 Zr1059 Zr 0.50748 -0.01684 0.48302
 O1060 O 0.52056 -0.00448 0.49482
 Zr1061 Zr 0.48346 -0.01666 0.50695
 O1062 O 0.49566 -0.00469 0.52005
 Zr1063 Zr 0.51617 0.01634 0.49166
 O1064 O 0.50437 0.00402 0.47835
 Zr1065 Zr 0.49234 0.01615 0.51582
 O1066 O 0.47908 0.00417 0.50366
 Zr1067 Zr 0.51642 -0.00781 0.51558
 O1068 O 0.50422 -0.02129 0.50379
 O1069 O 0.48687 -0.01340 0.48631
 O1070 O 0.51305 0.01299 0.51243
 C1071 C 0.45785 -0.01026 0.48885
 C1072 C 0.48989 -0.01062 0.45725
 C1073 C 0.48950 -0.04253 0.48936
 C1074 C 0.54150 0.01138 0.50990
 C1075 C 0.51110 0.04145 0.51064
 C1076 C 0.51119 0.01075 0.54091
 H1077 H 0.49328 0.03017 0.49286
 H1078 H 0.49350 -0.00699 0.52963
 H1079 H 0.48105 -0.01926 0.48048
 H1080 H 0.53017 -0.00651 0.49248
 H1081 H 0.52761 0.01242 0.46826
 H1082 H 0.52895 -0.01080 0.46903
 H1083 H 0.47782 0.00811 0.53652
 H1084 H 0.46413 -0.00704 0.52200
 H1085 H 0.52102 0.03783 0.47664
 H1086 H 0.47868 0.02265 0.46146
 H1087 H 0.50851 -0.02318 0.53566
 H1088 H 0.49274 -0.03582 0.52245
 H1089 H 0.46438 0.02239 0.49297
 H1090 H 0.47736 0.03658 0.50785
 H1091 H 0.52208 -0.03654 0.49293
 H1092 H 0.53734 -0.02210 0.50764
 O1093 O 0.53687 0.51816 0.00062
 O1094 O 0.53238 0.51660 -0.02261
 O1095 O 0.50114 0.53694 0.01739
 O1096 O 0.47870 0.53288 0.01809
 O1097 O 0.51812 0.50080 0.03621
 O1098 O 0.51714 0.47701 0.03100
 O1099 O 0.46477 0.50008 -0.01792
 O1100 O 0.46864 0.52336 -0.01509
 O1101 O 0.49919 0.48310 -0.03588
 O1102 O 0.52381 0.48390 -0.03132
 O1103 O 0.48274 0.46476 -0.00136
 O1104 O 0.48348 0.46920 0.02304
 O1105 O 0.46474 0.48342 -0.00168
 O1106 O 0.46981 0.48462 0.02369
 O1107 O 0.49913 0.46473 -0.01774
 O1108 O 0.52431 0.46981 -0.01628
 O1109 O 0.48261 0.49936 -0.03563
 O1110 O 0.48726 0.52414 -0.03111
 O1111 O 0.53703 0.50126 0.01666
 O1112 O 0.53184 0.47696 0.01546
 O1113 O 0.50176 0.51730 0.03652
 O1114 O 0.47704 0.51526 0.03102
 O1115 O 0.51780 0.53699 0.00124
 O1116 O 0.51466 0.53178 -0.02339
 Zr1117 Zr 0.51701 0.51725 -0.00743
 O1118 O 0.50506 0.50510 -0.02058
 Zr1119 Zr 0.49322 0.51691 0.01678
 O1120 O 0.48007 0.50519 0.00443
 Zr1121 Zr 0.51719 0.49285 0.01628
 O1122 O 0.50493 0.47981 0.00431
 Zr1123 Zr 0.48438 0.50853 -0.01629
 O1124 O 0.49625 0.52177 -0.00396
 Zr1125 Zr 0.50817 0.48424 -0.01641
 O1126 O 0.52149 0.49633 -0.00444
 Zr1127 Zr 0.48418 0.48431 0.00755
 O1128 O 0.49646 0.49602 0.02101
 O1129 O 0.51382 0.51362 0.01324
 O1130 O 0.48747 0.48765 -0.01314
 C1131 C 0.54283 0.51099 0.00990
 C1132 C 0.51076 0.54285 0.01065
 C1133 C 0.51127 0.51026 0.04225
 C1134 C 0.45903 0.49020 -0.01141
 C1135 C 0.48925 0.48963 -0.04145
 C1136 C 0.48931 0.45902 -0.01116
 H1137 H 0.50719 0.50741 -0.03018
 H1138 H 0.50708 0.47017 0.00651
 H1139 H 0.51968 0.51942 0.01909
 H1140 H 0.47047 0.50754 0.00652
 H1141 H 0.47301 0.53202 -0.01215
 H1142 H 0.47179 0.53108 0.01097
 H1143 H 0.52269 0.46336 -0.00866
 H1144 H 0.53644 0.47776 0.00650
 H1145 H 0.47946 0.52378 -0.03755
 H1146 H 0.52189 0.53884 -0.02251
 H1147 H 0.49211 0.46397 0.02263
 H1148 H 0.50797 0.47711 0.03525
 H1149 H 0.53610 0.50717 -0.02259
 H1150 H 0.52303 0.49238 -0.03680
 H1151 H 0.47867 0.50680 0.03636
 H1152 H 0.46333 0.49219 0.02194
 O1153 O 0.76762 0.28690 0.49923
 O1154 O 0.76583 0.28262 0.52253
 O1155 O 0.78626 0.25082 0.48296
 O1156 O 0.78214 0.22827 0.48255
 O1157 O 0.75057 0.26785 0.46371
 O1158 O 0.72679 0.26698 0.46873
 O1159 O 0.74907 0.21477 0.51835
 O1160 O 0.77229 0.21852 0.51568
 O1161 O 0.73220 0.24961 0.53586
 O1162 O 0.73318 0.27428 0.53104
 O1163 O 0.71414 0.23288 0.50133
 O1164 O 0.71876 0.23335 0.47697
 O1165 O 0.73262 0.21470 0.50196
 O1166 O 0.73404 0.21955 0.47657
 O1167 O 0.71405 0.24948 0.51756
 O1168 O 0.71926 0.27471 0.51591
 O1169 O 0.74831 0.23287 0.53589
 O1170 O 0.77304 0.23735 0.53152
 O1171 O 0.75094 0.28700 0.48304
 O1172 O 0.72670 0.28194 0.48412
 O1173 O 0.76690 0.25132 0.46372
 O1174 O 0.76469 0.22657 0.46943
 O1175 O 0.78626 0.26770 0.49895
 O1176 O 0.78088 0.26476 0.52357
 Zr1177 Zr 0.76653 0.26704 0.50750
 O1178 O 0.75426 0.25523 0.52066
 Zr1179 Zr 0.76629 0.24293 0.48352
 O1180 O 0.75443 0.22990 0.49590
 Zr1181 Zr 0.74245 0.26713 0.48358
 O1182 O 0.72930 0.25501 0.49557
 Zr1183 Zr 0.75760 0.23441 0.51660
 O1184 O 0.77096 0.24615 0.50427
 Zr1185 Zr 0.73354 0.25843 0.51630
 O1186 O 0.74575 0.27163 0.50429
 Zr1187 Zr 0.73369 0.23413 0.49257
 O1188 O 0.74553 0.24626 0.47908
 O1189 O 0.76307 0.26366 0.48684
 O1190 O 0.73685 0.23760 0.51326
 C1191 C 0.76062 0.29282 0.48980
 C1192 C 0.79212 0.26054 0.48961
 C1193 C 0.76004 0.26088 0.45785
 C1194 C 0.73926 0.20901 0.51179
 C1195 C 0.73862 0.23966 0.54158
 C1196 C 0.70836 0.23960 0.51101
 H1197 H 0.75650 0.25745 0.53025
 H1198 H 0.71972 0.25720 0.49328
 H1199 H 0.76893 0.26946 0.48097
 H1200 H 0.75673 0.22024 0.49393
 H1201 H 0.78097 0.22282 0.51275
 H1202 H 0.78018 0.22134 0.48964
 H1203 H 0.71292 0.27307 0.50822
 H1204 H 0.72745 0.28663 0.49304
 H1205 H 0.77259 0.22958 0.53803
 H1206 H 0.78795 0.27199 0.52267
 H1207 H 0.71362 0.24207 0.47723
 H1208 H 0.72694 0.25776 0.46453
 H1209 H 0.75648 0.28644 0.52236
 H1210 H 0.74157 0.27350 0.53660
 H1211 H 0.75632 0.22820 0.46400
 H1212 H 0.74155 0.21304 0.47842
 O1213 O 0.71355 0.73163 0.00063
 O1214 O 0.71798 0.73334 -0.02261
 O1215 O 0.74931 0.71272 0.01719
 O1216 O 0.77175 0.71675 0.01786
 O1217 O 0.73243 0.74877 0.03625
 O1218 O 0.73340 0.77259 0.03115
 O1219 O 0.78563 0.74977 -0.01801
 O1220 O 0.78173 0.72646 -0.01530
 O1221 O 0.75122 0.76693 -0.03578
 O1222 O 0.72661 0.76610 -0.03120
 O1223 O 0.76775 0.78498 -0.00120
 O1224 O 0.76705 0.78038 0.02319
 O1225 O 0.78571 0.76634 -0.00168
 O1226 O 0.78073 0.76495 0.02369
 O1227 O 0.75133 0.78515 -0.01754
 O1228 O 0.72613 0.78008 -0.01605
 O1229 O 0.76779 0.75064 -0.03565
 O1230 O 0.76309 0.72583 -0.03129
 O1231 O 0.71346 0.74843 0.01676
 O1232 O 0.71867 0.77273 0.01565
 O1233 O 0.74876 0.73224 0.03643
 O1234 O 0.77347 0.73428 0.03087
 O1235 O 0.73261 0.71278 0.00108
 O1236 O 0.73570 0.71815 -0.02353
 Zr1237 Zr 0.73340 0.73258 -0.00748
 O1238 O 0.74533 0.74480 -0.02060
 Zr1239 Zr 0.75725 0.73274 0.01667
 O1240 O 0.77039 0.74452 0.00435
 Zr1241 Zr 0.73330 0.75683 0.01636
 O1242 O 0.74556 0.76993 0.00443
 Zr1243 Zr 0.76602 0.74132 -0.01637
 O1244 O 0.75416 0.72802 -0.00409
 Zr1245 Zr 0.74226 0.76564 -0.01631
 O1246 O 0.72895 0.75349 -0.00437
 Zr1247 Zr 0.76630 0.76538 0.00760
 O1248 O 0.75404 0.75361 0.02103
 O1249 O 0.73665 0.73608 0.01320
 O1250 O 0.76295 0.76218 -0.01310
 C1251 C 0.70764 0.73874 0.00998
 C1252 C 0.73967 0.70686 0.01045
 C1253 C 0.73928 0.73926 0.04222
 C1254 C 0.79138 0.75963 -0.01147
 C1255 C 0.76116 0.76044 -0.04140
 C1256 C 0.76118 0.79080 -0.01095
 H1257 H 0.74318 0.74256 -0.03020
 H1258 H 0.74342 0.77956 0.00669
 H1259 H 0.73080 0.73025 0.01904
 H1260 H 0.77999 0.74215 0.00640
 H1261 H 0.77736 0.71778 -0.01241
 H1262 H 0.77864 0.71857 0.01072
 H1263 H 0.72778 0.78649 -0.00841
 H1264 H 0.71404 0.77199 0.00670
 H1265 H 0.77088 0.72623 -0.03774
 H1266 H 0.72846 0.71109 -0.02266
 H1267 H 0.75844 0.78565 0.02280
 H1268 H 0.74258 0.77246 0.03538
 H1269 H 0.71429 0.74278 -0.02254
 H1270 H 0.72737 0.75765 -0.03671
 H1271 H 0.77186 0.74270 0.03627
 H1272 H 0.78720 0.75739 0.02187
 O1273 O 1.03674 0.23302 0.24831
 O1274 O 1.03235 0.23468 0.27158
 O1275 O 1.00100 0.21405 0.23182
 O1276 O 0.97853 0.21804 0.23125
 O1277 O 1.01780 0.25012 0.21273
 O1278 O 1.01675 0.27395 0.21782
 O1279 O 0.96468 0.25103 0.26710
 O1280 O 0.96859 0.22773 0.26439
 O1281 O 0.99915 0.26818 0.28482
 O1282 O 1.02376 0.26739 0.28015
 O1283 O 0.98250 0.28627 0.25029
 O1284 O 0.98318 0.28171 0.22588
 O1285 O 0.96456 0.26759 0.25076
 O1286 O 0.96950 0.26628 0.22540
 O1287 O 0.99897 0.28643 0.26659
 O1288 O 1.02415 0.28141 0.26504
 O1289 O 0.98259 0.25188 0.28472
 O1290 O 0.98727 0.22708 0.28033
 O1291 O 1.03679 0.24982 0.23217
 O1292 O 1.03155 0.27411 0.23329
 O1293 O 1.00146 0.23358 0.21260
 O1294 O 0.97677 0.23558 0.21820
 O1295 O 1.01773 0.21413 0.24789
 O1296 O 1.01467 0.21945 0.27251
 Zr1297 Zr 1.01691 0.23391 0.25647
 O1298 O 1.00500 0.24610 0.26961
 Zr1299 Zr 0.99301 0.23405 0.23237
 O1300 O 0.97989 0.24582 0.24471
 Zr1301 Zr 1.01693 0.25818 0.23262
 O1302 O 1.00470 0.27125 0.24459
 Zr1303 Zr 0.98430 0.24260 0.26543
 O1304 O 0.99615 0.22932 0.25312
 Zr1305 Zr 1.00805 0.26694 0.26532
 O1306 O 1.02134 0.25483 0.25334
 Zr1307 Zr 0.98396 0.26669 0.24146
 O1308 O 0.99619 0.25493 0.22800
 O1309 O 1.01362 0.23743 0.23580
 O1310 O 0.98735 0.26347 0.26215
 C1311 C 1.04263 0.24014 0.23895
 C1312 C 1.01067 0.20820 0.23853
 C1313 C 1.01095 0.24059 0.20679
 C1314 C 0.95890 0.26086 0.26055
 C1315 C 0.98924 0.26166 0.29047
 C1316 C 0.98910 0.29208 0.26004
 H1317 H 1.00717 0.24384 0.27921
 H1318 H 1.00683 0.28089 0.24233
 H1319 H 1.01947 0.23161 0.22995
 H1320 H 0.97029 0.24344 0.24268
 H1321 H 0.97296 0.21906 0.26147
 H1322 H 0.97161 0.21989 0.23835
 H1323 H 1.02249 0.28781 0.25739
 H1324 H 1.03619 0.27337 0.24223
 H1325 H 0.97950 0.22746 0.28680
 H1326 H 1.02193 0.21241 0.27163
 H1327 H 0.99178 0.28700 0.22627
 H1328 H 1.00757 0.27378 0.21361
 H1329 H 1.03607 0.24411 0.27148
 H1330 H 1.02300 0.25894 0.28568
 H1331 H 0.97835 0.24402 0.21280
 H1332 H 0.96307 0.25867 0.22720
 O1333 O 0.74901 1.03653 0.73205
 O1334 O 0.77226 1.03209 0.73390
 O1335 O 0.73255 1.00053 0.71334
 O1336 O 0.73192 0.97798 0.71749
 O1337 O 0.71328 1.01771 0.74894
 O1338 O 0.71819 1.01677 0.77274
 O1339 O 0.76754 0.96428 0.75066
 O1340 O 0.76496 0.96804 0.72741
 O1341 O 0.78522 0.99895 0.76760
 O1342 O 0.78060 1.02370 0.76654
 O1343 O 0.75057 0.98245 0.78551
 O1344 O 0.72618 0.98314 0.78082
 O1345 O 0.75111 0.96430 0.76707
 O1346 O 0.72575 0.96930 0.76556
 O1347 O 0.76690 0.99896 0.78564
 O1348 O 0.76543 1.02420 0.78045
 O1349 O 0.78518 0.98221 0.75150
 O1350 O 0.78096 0.98676 0.72674
 O1351 O 0.73278 1.03672 0.74869
 O1352 O 0.73367 1.03162 0.77291
 O1353 O 0.71322 1.00119 0.73261
 O1354 O 0.71873 0.97640 0.73489
 O1355 O 0.74864 1.01732 0.71340
 O1356 O 0.77322 1.01422 0.71886
 Zr1357 Zr 0.75711 1.01661 0.73315
 O1358 O 0.77016 1.00471 0.74546
 Zr1359 Zr 0.73296 0.99265 0.73332
 O1360 O 0.74520 0.97954 0.74522
 Zr1361 Zr 0.73310 1.01684 0.75716
 O1362 O 0.74498 1.00464 0.77035
 Zr1363 Zr 0.76595 0.98391 0.74211
 O1364 O 0.75375 0.99574 0.72871
 Zr1365 Zr 0.76575 1.00793 0.76616
 O1366 O 0.75386 1.02121 0.75392
 Zr1367 Zr 0.74184 0.98378 0.76595
 O1368 O 0.72847 0.99600 0.75406
 O1369 O 0.73642 1.01336 0.73654
 O1370 O 0.76256 0.98713 0.76284
 C1371 C 0.73962 1.04251 0.73905
 C1372 C 0.73929 1.01020 0.70750
 C1373 C 0.70739 1.01080 0.73945
 C1374 C 0.76094 0.95856 0.76048
 C1375 C 0.79087 0.98893 0.76123
 C1376 C 0.76031 0.98909 0.79129
 H1377 H 0.77978 1.00686 0.74326
 H1378 H 0.74268 1.00685 0.77992
 H1379 H 0.73062 1.01921 0.73067
 H1380 H 0.74317 0.96989 0.74292
 H1381 H 0.76210 0.97238 0.71873
 H1382 H 0.73897 0.97102 0.71947
 H1383 H 0.75773 1.02260 0.78678
 H1384 H 0.74264 1.03624 0.77224
 H1385 H 0.78741 0.97894 0.72722
 H1386 H 0.77240 1.02146 0.71179
 H1387 H 0.72654 0.99182 0.78600
 H1388 H 0.71394 1.00757 0.77259
 H1389 H 0.77211 1.03587 0.74326
 H1390 H 0.78624 1.02281 0.75822
 H1391 H 0.71328 0.97807 0.74324
 H1392 H 0.72759 0.96278 0.75805
 O1393 O 0.71340 0.51784 0.24913
 O1394 O 0.71782 0.51617 0.27238
 O1395 O 0.74913 0.53675 0.23254
 O1396 O 0.77159 0.53276 0.23196
 O1397 O 0.73231 0.50069 0.21351
 O1398 O 0.73326 0.47687 0.21865
 O1399 O 0.78546 0.49974 0.26781
 O1400 O 0.78158 0.52304 0.26507
 O1401 O 0.75103 0.48262 0.28560
 O1402 O 0.72641 0.48344 0.28098
 O1403 O 0.76757 0.46451 0.25103
 O1404 O 0.76687 0.46911 0.22663
 O1405 O 0.78554 0.48316 0.25150
 O1406 O 0.78058 0.48450 0.22614
 O1407 O 0.75115 0.46436 0.26737
 O1408 O 0.72596 0.46942 0.26587
 O1409 O 0.76758 0.49892 0.28546
 O1410 O 0.76292 0.52371 0.28105
 O1411 O 0.71330 0.50105 0.23300
 O1412 O 0.71850 0.47676 0.23413
 O1413 O 0.74866 0.51721 0.21334
 O1414 O 0.77333 0.51521 0.21892
 O1415 O 0.73244 0.53670 0.24866
 O1416 O 0.73553 0.53136 0.27327
 Zr1417 Zr 0.73324 0.51691 0.25725
 O1418 O 0.74516 0.50471 0.27038
 Zr1419 Zr 0.75710 0.51675 0.23311
 O1420 O 0.77023 0.50497 0.24544
 Zr1421 Zr 0.73315 0.49265 0.23342
 O1422 O 0.74539 0.47956 0.24538
 Zr1423 Zr 0.76586 0.50819 0.26616
 O1424 O 0.75400 0.52149 0.25386
 Zr1425 Zr 0.74209 0.48387 0.26611
 O1426 O 0.72879 0.49601 0.25415
 Zr1427 Zr 0.76614 0.48410 0.24221
 O1428 O 0.75389 0.49587 0.22877
 O1429 O 0.73649 0.51340 0.23657
 O1430 O 0.76278 0.48732 0.26291
 C1431 C 0.70748 0.51073 0.23979
 C1432 C 0.73949 0.54262 0.23927
 C1433 C 0.73918 0.51019 0.20755
 C1434 C 0.79121 0.48989 0.26128
 C1435 C 0.76094 0.48914 0.29122
 C1436 C 0.76099 0.45870 0.26079
 H1437 H 0.74300 0.50697 0.27998
 H1438 H 0.74325 0.46993 0.24313
 H1439 H 0.73065 0.51922 0.23072
 H1440 H 0.77983 0.50734 0.24339
 H1441 H 0.77721 0.53172 0.26216
 H1442 H 0.77853 0.53089 0.23905
 H1443 H 0.72760 0.46303 0.25822
 H1444 H 0.71388 0.47750 0.24309
 H1445 H 0.77071 0.52333 0.28750
 H1446 H 0.72829 0.53842 0.27240
 H1447 H 0.75828 0.46380 0.22705
 H1448 H 0.74244 0.47700 0.21443
 H1449 H 0.71411 0.50673 0.27231
 H1450 H 0.72718 0.49188 0.28650
 H1451 H 0.77176 0.50676 0.21356
 H1452 H 0.78703 0.49209 0.22793
 O1453 O 0.50074 0.21424 0.73152
 O1454 O 0.47747 0.21856 0.73341
 O1455 O 0.51706 0.25036 0.71295
 O1456 O 0.51754 0.27288 0.71712
 O1457 O 0.53639 0.23318 0.74854
 O1458 O 0.53144 0.23389 0.77230
 O1459 O 0.48188 0.28633 0.75037
 O1460 O 0.48444 0.28266 0.72712
 O1461 O 0.46436 0.25149 0.76723
 O1462 O 0.46908 0.22682 0.76617
 O1463 O 0.49901 0.26810 0.78517
 O1464 O 0.52335 0.26757 0.78044
 O1465 O 0.49833 0.28632 0.76675
 O1466 O 0.52373 0.28142 0.76519
 O1467 O 0.48273 0.25154 0.78528
 O1468 O 0.48431 0.22630 0.78000
 O1469 O 0.46430 0.26828 0.75117
 O1470 O 0.46855 0.26386 0.72640
 O1471 O 0.51700 0.21404 0.74813
 O1472 O 0.51600 0.21901 0.77240
 O1473 O 0.53638 0.24976 0.73224
 O1474 O 0.53072 0.27451 0.73454
 O1475 O 0.50100 0.23354 0.71295
 O1476 O 0.47639 0.23648 0.71846
 Zr1477 Zr 0.49253 0.23411 0.73272
 O1478 O 0.47944 0.24590 0.74508
 Zr1479 Zr 0.51658 0.25817 0.73294
 O1480 O 0.50428 0.27118 0.74487
 Zr1481 Zr 0.51654 0.23388 0.75670
 O1482 O 0.50464 0.24599 0.76994
 Zr1483 Zr 0.48355 0.26673 0.74177
 O1484 O 0.49580 0.25501 0.72834
 Zr1485 Zr 0.48389 0.24263 0.76577
 O1486 O 0.49580 0.22944 0.75347
 Zr1487 Zr 0.50769 0.26688 0.76559
 O1488 O 0.52109 0.25475 0.75366
 O1489 O 0.51322 0.23743 0.73610
 O1490 O 0.48697 0.26346 0.76250
 C1491 C 0.51018 0.20827 0.73846
 C1492 C 0.51033 0.24069 0.70707
 C1493 C 0.54225 0.24018 0.73908
 C1494 C 0.48848 0.29204 0.76018
 C1495 C 0.45864 0.26148 0.76087
 C1496 C 0.48932 0.26140 0.79096
 H1497 H 0.46983 0.24371 0.74288
 H1498 H 0.50697 0.24376 0.77950
 H1499 H 0.51905 0.23165 0.73021
 H1500 H 0.50627 0.28085 0.74259
 H1501 H 0.48732 0.27838 0.71843
 H1502 H 0.51045 0.27980 0.71911
 H1503 H 0.49200 0.22792 0.78634
 H1504 H 0.50707 0.21433 0.77166
 H1505 H 0.46206 0.27164 0.72690
 H1506 H 0.47725 0.22929 0.71135
 H1507 H 0.52307 0.25885 0.78558
 H1508 H 0.53563 0.24313 0.77223
 H1509 H 0.47764 0.21472 0.74276
 H1510 H 0.46352 0.22762 0.75779
 H1511 H 0.53619 0.27283 0.74287
 H1512 H 0.52183 0.28799 0.75774
 O1513 O 0.21389 0.73193 0.50137
 O1514 O 0.21822 0.73353 0.47811
 O1515 O 0.24973 0.71314 0.51789
 O1516 O 0.27218 0.71721 0.51842
 O1517 O 0.23287 0.74924 0.53686
 O1518 O 0.23378 0.77304 0.53165
 O1519 O 0.28586 0.75009 0.48239
 O1520 O 0.28201 0.72680 0.48520
 O1521 O 0.25133 0.76711 0.46467
 O1522 O 0.22671 0.76623 0.46937
 O1523 O 0.26795 0.78537 0.49908
 O1524 O 0.26735 0.78088 0.52350
 O1525 O 0.28596 0.76673 0.49865
 O1526 O 0.28107 0.76551 0.52403
 O1527 O 0.25144 0.78542 0.48282
 O1528 O 0.22629 0.78031 0.48441
 O1529 O 0.26794 0.75087 0.46480
 O1530 O 0.26330 0.72607 0.46929
 O1531 O 0.21381 0.74879 0.51744
 O1532 O 0.21897 0.77308 0.51622
 O1533 O 0.24924 0.73274 0.53704
 O1534 O 0.27391 0.73481 0.53138
 O1535 O 0.23299 0.71311 0.50183
 O1536 O 0.23595 0.71838 0.47719
 Zr1537 Zr 0.23370 0.73287 0.49319
 O1538 O 0.24555 0.74505 0.47997
 Zr1539 Zr 0.25764 0.73317 0.51725
 O1540 O 0.27070 0.74493 0.50483
 Zr1541 Zr 0.23364 0.75721 0.51693
 O1542 O 0.24581 0.77029 0.50489
 Zr1543 Zr 0.26627 0.74163 0.48413
 O1544 O 0.25448 0.72836 0.49652
 Zr1545 Zr 0.24245 0.76590 0.48418
 O1546 O 0.22921 0.75378 0.49623
 Zr1547 Zr 0.26658 0.76581 0.50799
 O1548 O 0.25440 0.75406 0.52152
 O1549 O 0.23701 0.73646 0.51383
 O1550 O 0.26316 0.76251 0.48732
 C1551 C 0.20798 0.73907 0.51071
 C1552 C 0.24009 0.70723 0.51120
 C1553 C 0.23976 0.73977 0.54283
 C1554 C 0.29162 0.75997 0.48888
 C1555 C 0.26126 0.76062 0.45904
 C1556 C 0.26130 0.79113 0.48933
 H1557 H 0.24337 0.74276 0.47038
 H1558 H 0.24366 0.77993 0.50710
 H1559 H 0.23120 0.73064 0.51972
 H1560 H 0.28031 0.74260 0.50685
 H1561 H 0.27766 0.71813 0.48816
 H1562 H 0.27906 0.71905 0.51127
 H1563 H 0.22792 0.78672 0.49206
 H1564 H 0.21432 0.77230 0.50729
 H1565 H 0.27106 0.72645 0.46280
 H1566 H 0.22873 0.71130 0.47812
 H1567 H 0.25874 0.78614 0.52311
 H1568 H 0.24298 0.77294 0.53584
 H1569 H 0.21451 0.74296 0.47814
 H1570 H 0.22751 0.75779 0.46384
 H1571 H 0.27231 0.74326 0.53673
 H1572 H 0.28751 0.75791 0.52225
 O1573 O 0.28678 0.25090 0.98276
 O1574 O 0.28247 0.22752 0.98468
 O1575 O 0.25096 0.26719 0.96384
 O1576 O 0.22850 0.26776 0.96786
 O1577 O 0.26782 0.28668 0.99952
 O1578 O 0.26680 0.28177 1.02332
 O1579 O 0.21481 0.23196 1.00100
 O1580 O 0.21868 0.23452 0.97780
 O1581 O 0.24936 0.21438 1.01818
 O1582 O 0.27393 0.21913 1.01733
 O1583 O 0.23269 0.24921 1.03597
 O1584 O 0.23320 0.27360 1.03122
 O1585 O 0.21467 0.24849 1.01736
 O1586 O 0.21959 0.27400 1.01581
 O1587 O 0.24918 0.23287 1.03624
 O1588 O 0.27434 0.23441 1.03115
 O1589 O 0.23280 0.21431 1.00197
 O1590 O 0.23741 0.21858 0.97724
 O1591 O 0.28683 0.26724 0.99935
 O1592 O 0.28165 0.26626 1.02358
 O1593 O 0.25147 0.28664 0.98307
 O1594 O 0.22677 0.28101 0.98524
 O1595 O 0.26774 0.25110 0.96402
 O1596 O 0.26477 0.22641 0.96955
 Zr1597 Zr 0.26699 0.24264 0.98380
 O1598 O 0.25513 0.22951 0.99607
 Zr1599 Zr 0.24303 0.26679 0.98378
 O1600 O 0.22996 0.25445 0.99562
 Zr1601 Zr 0.26700 0.26678 1.00775
 O1602 O 0.25481 0.25484 1.02089
 Zr1603 Zr 0.23441 0.23363 0.99259
 O1604 O 0.24621 0.24592 0.97924
 Zr1605 Zr 0.25820 0.23399 1.01678
 O1606 O 0.27144 0.24595 1.00459
 Zr1607 Zr 0.23405 0.25788 1.01637
 O1608 O 0.24624 0.27134 1.00453
 O1609 O 0.26364 0.26341 0.98713
 O1610 O 0.23748 0.23708 1.01334
 C1611 C 0.29266 0.26040 0.98973
 C1612 C 0.26065 0.26044 0.95806
 C1613 C 0.26097 0.29254 0.98996
 C1614 C 0.20902 0.23861 1.01074
 C1615 C 0.23948 0.20862 1.01172
 C1616 C 0.23934 0.23951 1.04184
 H1617 H 0.25733 0.21986 0.99390
 H1618 H 0.25695 0.25719 1.03046
 H1619 H 0.26946 0.26925 0.98126
 H1620 H 0.22035 0.25644 0.99325
 H1621 H 0.22302 0.23742 0.96914
 H1622 H 0.22160 0.26063 0.96979
 H1623 H 0.27270 0.24218 1.03742
 H1624 H 0.28633 0.25730 1.02289
 H1625 H 0.22965 0.21205 0.97768
 H1626 H 0.27202 0.22726 0.96252
 H1627 H 0.24190 0.27341 1.03634
 H1628 H 0.25763 0.28603 1.02308
 H1629 H 0.28623 0.22774 0.99406
 H1630 H 0.27323 0.21355 1.00894
 H1631 H 0.22839 0.28652 0.99356
 H1632 H 0.21311 0.27209 1.00831
 C1633 C 0.28658 0.38113 0.78628
 C1634 C 0.28450 0.37757 0.79996
 C1635 C 0.28931 0.36505 0.80494
 C1636 C 0.29629 0.35589 0.79631
 C1637 C 0.29828 0.35955 0.78255
 C1638 C 0.29345 0.37209 0.77758
 C1639 C 0.28185 0.39416 0.78129
 C1640 C 0.27793 0.40516 0.77730
 C1641 C 0.27332 0.41840 0.77276
 C1642 C 0.26244 0.42486 0.77940
 C1643 C 0.25821 0.43791 0.77531
 C1644 C 0.26484 0.44471 0.76450
 C1645 C 0.27570 0.43806 0.75781
 C1646 C 0.27990 0.42500 0.76192
 H1647 H 0.27926 0.38452 0.80680
 H1648 H 0.28779 0.36267 0.81562
 H1649 H 0.30346 0.35268 0.77561
 H1650 H 0.29510 0.37474 0.76697
 H1651 H 0.25729 0.41985 0.78783
 H1652 H 0.24984 0.44271 0.78072
 H1653 H 0.28106 0.44299 0.74948
 H1654 H 0.28836 0.42011 0.75673
 C1655 C 0.28676 -0.11868 0.28694
 C1656 C 0.29854 -0.12442 0.28133
 C1657 C 0.30364 -0.13681 0.28635
 C1658 C 0.29707 -0.14378 0.29721
 C1659 C 0.28503 -0.13783 0.30259
 C1660 C 0.27999 -0.12543 0.29751
 C1661 C 0.28181 -0.10569 0.28204
 C1662 C 0.27779 -0.09472 0.27805
 C1663 C 0.27316 -0.08152 0.27342
 C1664 C 0.27973 -0.07502 0.26252
 C1665 C 0.27556 -0.06199 0.25831
 C1666 C 0.26473 -0.05526 0.26498
 C1667 C 0.25810 -0.06196 0.27585
 C1668 C 0.26230 -0.07500 0.28003
 H1669 H 0.30388 -0.11925 0.27313
 H1670 H 0.31287 -0.14063 0.28172
 H1671 H 0.27931 -0.14259 0.31071
 H1672 H 0.27081 -0.12108 0.30191
 H1673 H 0.28817 -0.07998 0.25735
 H1674 H 0.28092 -0.05714 0.24993
 H1675 H 0.24977 -0.05709 0.28124
 H1676 H 0.25717 -0.07992 0.28851
 C1677 C 0.78743 0.88143 0.78716
 C1678 C 0.78079 0.87481 0.79791
 C1679 C 0.78588 0.86246 0.80306
 C1680 C 0.79783 0.85641 0.79757
 C1681 C 0.80427 0.86326 0.78656
 C1682 C 0.79912 0.87560 0.78147
 C1683 C 0.78241 0.89435 0.78216
 C1684 C 0.77835 0.90527 0.77807
 C1685 C 0.77365 0.91840 0.77332
 C1686 C 0.76262 0.92483 0.77973
 C1687 C 0.75834 0.93781 0.77543
 C1688 C 0.76508 0.94455 0.76464
 C1689 C 0.77609 0.93792 0.75818
 C1690 C 0.78033 0.92494 0.76250
 H1691 H 0.77169 0.87923 0.80239
 H1692 H 0.78027 0.85781 0.81132
 H1693 H 0.81342 0.85937 0.78182
 H1694 H 0.80436 0.88067 0.77313
 H1695 H 0.75739 0.91987 0.78813
 H1696 H 0.74986 0.94260 0.78067
 H1697 H 0.78154 0.94280 0.74989
 H1698 H 0.78892 0.92007 0.75750
 C1699 C 0.46233 0.86843 0.28606
 C1700 C 0.45021 0.87396 0.28096
 C1701 C 0.44532 0.88647 0.28590
 C1702 C 0.45245 0.89377 0.29617
 C1703 C 0.46480 0.88801 0.30105
 C1704 C 0.46963 0.87551 0.29605
 C1705 C 0.46713 0.85536 0.28123
 C1706 C 0.47109 0.84434 0.27732
 C1707 C 0.47570 0.83110 0.27279
 C1708 C 0.46906 0.82449 0.26200
 C1709 C 0.47328 0.81145 0.25784
 C1710 C 0.48422 0.80483 0.26444
 C1711 C 0.49089 0.81163 0.27522
 C1712 C 0.48665 0.82467 0.27935
 H1713 H 0.44446 0.86853 0.27322
 H1714 H 0.43581 0.89010 0.28172
 H1715 H 0.47095 0.89305 0.30867
 H1716 H 0.47907 0.87133 0.30004
 H1717 H 0.46055 0.82936 0.25687
 H1718 H 0.46787 0.80652 0.24955
 H1719 H 0.49932 0.80685 0.28056
 H1720 H 0.49184 0.82969 0.28773
 C1721 C -0.03775 0.86735 0.78811
 C1722 C -0.03178 0.87343 0.79954
 C1723 C -0.03689 0.88576 0.80468
 C1724 C -0.04821 0.89234 0.79851
 C1725 C -0.05398 0.88605 0.78683
 C1726 C -0.04881 0.87371 0.78174
 C1727 C -0.03272 0.85445 0.78309
 C1728 C -0.02862 0.84356 0.77898
 C1729 C -0.02386 0.83046 0.77421
 C1730 C -0.03022 0.82415 0.76307
 C1731 C -0.02590 0.81122 0.75869
 C1732 C -0.01514 0.80442 0.76540
 C1733 C -0.00874 0.81094 0.77652
 C1734 C -0.01308 0.82386 0.78088
 H1735 H -0.02319 0.86857 0.80456
 H1736 H -0.03188 0.88988 0.81358
 H1737 H -0.06253 0.89044 0.78145
 H1738 H -0.05351 0.86909 0.77286
 H1739 H -0.03860 0.82916 0.75786
 H1740 H -0.03108 0.80652 0.75013
 H1741 H -0.00046 0.80600 0.78195
 H1742 H -0.00812 0.82865 0.78953
 C1743 C -0.03786 -0.11870 -0.03732
 C1744 C -0.04453 -0.12797 -0.02870
 C1745 C -0.04941 -0.14040 -0.03386
 C1746 C -0.04767 -0.14373 -0.04773
 C1747 C -0.04088 -0.13435 -0.05629
 C1748 C -0.03602 -0.12193 -0.05111
 C1749 C -0.03305 -0.10578 -0.03212
 C1750 C -0.02907 -0.09486 -0.02795
 C1751 C -0.02436 -0.08173 -0.02321
 C1752 C -0.03101 -0.07516 -0.01241
 C1753 C -0.02672 -0.06218 -0.00813
 C1754 C -0.01569 -0.05559 -0.01462
 C1755 C -0.00899 -0.06238 -0.02539
 C1756 C -0.01331 -0.07535 -0.02964
 H1757 H -0.04599 -0.12557 -0.01801
 H1758 H -0.05444 -0.14745 -0.02698
 H1759 H -0.03954 -0.13649 -0.06704
 H1760 H -0.03092 -0.11480 -0.05789
 H1761 H -0.03961 -0.08000 -0.00738
 H1762 H -0.03215 -0.05726 0.00016
 H1763 H -0.00050 -0.05762 -0.03065
 H1764 H -0.00810 -0.08033 -0.03804
 C1765 C -0.03717 0.38094 0.46303
 C1766 C -0.04877 0.37495 0.46877
 C1767 C -0.05374 0.36250 0.46375
 C1768 C -0.04719 0.35571 0.45277
 C1769 C -0.03535 0.36193 0.44723
 C1770 C -0.03045 0.37438 0.45231
 C1771 C -0.03232 0.39394 0.46798
 C1772 C -0.02834 0.40491 0.47200
 C1773 C -0.02370 0.41810 0.47666
 C1774 C -0.03030 0.42461 0.48754
 C1775 C -0.02607 0.43761 0.49180
 C1776 C -0.01516 0.44429 0.48522
 C1777 C -0.00851 0.43759 0.47437
 C1778 C -0.01277 0.42459 0.47013
 H1779 H -0.05408 0.37997 0.47708
 H1780 H -0.06283 0.35849 0.46849
 H1781 H -0.02966 0.35731 0.43901
 H1782 H -0.02141 0.37892 0.44781
 H1783 H -0.03880 0.41969 0.49265
 H1784 H -0.03145 0.44246 0.50016
 H1785 H -0.00011 0.44242 0.46904
 H1786 H -0.00761 0.41965 0.46168
 C1787 C 0.46474 -0.12088 0.46481
 C1788 C 0.47146 -0.12754 0.45415
 C1789 C 0.46641 -0.13990 0.44900
 C1790 C 0.45439 -0.14591 0.45439
 C1791 C 0.44790 -0.13906 0.46537
 C1792 C 0.45301 -0.12670 0.47045
 C1793 C 0.46962 -0.10786 0.46968
 C1794 C 0.47354 -0.09683 0.47359
 C1795 C 0.47802 -0.08351 0.47804
 C1796 C 0.48882 -0.07696 0.47135
 C1797 C 0.49274 -0.06374 0.47519
 C1798 C 0.48587 -0.05686 0.48580
 C1799 C 0.47516 -0.06364 0.49261
 C1800 C 0.47127 -0.07686 0.48874
 H1801 H 0.48059 -0.12311 0.44972
 H1802 H 0.47208 -0.14457 0.44080
 H1803 H 0.43871 -0.14294 0.47004
 H1804 H 0.44770 -0.12161 0.47872
 H1805 H 0.49409 -0.08200 0.46302
 H1806 H 0.50101 -0.05885 0.46971
 H1807 H 0.46964 -0.05867 0.50080
 H1808 H 0.46287 -0.08183 0.49396
 C1809 C 0.46325 0.38147 -0.03713
 C1810 C 0.45165 0.37552 -0.03135
 C1811 C 0.44672 0.36302 -0.03626
 C1812 C 0.45327 0.35614 -0.04718
 C1813 C 0.46511 0.36233 -0.05276
 C1814 C 0.46999 0.37483 -0.04779
 C1815 C 0.46809 0.39452 -0.03228
 C1816 C 0.47204 0.40553 -0.02832
 C1817 C 0.47665 0.41875 -0.02373
 C1818 C 0.47008 0.42527 -0.01284
 C1819 C 0.47429 0.43829 -0.00863
 C1820 C 0.48516 0.44499 -0.01527
 C1821 C 0.49177 0.43828 -0.02615
 C1822 C 0.48754 0.42526 -0.03033
 H1823 H 0.44633 0.38060 -0.02308
 H1824 H 0.43762 0.35903 -0.03149
 H1825 H 0.47081 0.35766 -0.06095
 H1826 H 0.47902 0.37935 -0.05232
 H1827 H 0.46162 0.42033 -0.00768
 H1828 H 0.46894 0.44315 -0.00026
 H1829 H 0.50014 0.44313 -0.03152
 H1830 H 0.49268 0.42032 -0.03879
 C1831 C 0.78585 0.37090 0.46488
 C1832 C 0.79961 0.37425 0.46672
 C1833 C 0.80474 0.38662 0.46169
 C1834 C 0.79615 0.39584 0.45471
 C1835 C 0.78230 0.39241 0.45301
 C1836 C 0.77719 0.38002 0.45806
 C1837 C 0.78076 0.35794 0.46971
 C1838 C 0.77672 0.34695 0.47364
 C1839 C 0.77219 0.33369 0.47817
 C1840 C 0.77897 0.32706 0.48886
 C1841 C 0.77505 0.31388 0.49284
 C1842 C 0.76427 0.30711 0.48613
 C1843 C 0.75737 0.31397 0.47552
 C1844 C 0.76132 0.32716 0.47158
 H1845 H 0.80642 0.36723 0.47192
 H1846 H 0.81548 0.38882 0.46300
 H1847 H 0.77539 0.39934 0.44785
 H1848 H 0.76651 0.37753 0.45659
 H1849 H 0.78743 0.33202 0.49401
 H1850 H 0.78060 0.30892 0.50102
 H1851 H 0.74904 0.30908 0.47012
 H1852 H 0.75602 0.33218 0.46326
 C1853 C 0.78774 0.86814 -0.03700
 C1854 C 0.79967 0.87381 -0.03164
 C1855 C 0.80471 0.88621 -0.03672
 C1856 C 0.79793 0.89325 -0.04739
 C1857 C 0.78575 0.88736 -0.05254
 C1858 C 0.78077 0.87496 -0.04740
 C1859 C 0.78281 0.85516 -0.03205
 C1860 C 0.77876 0.84421 -0.02804
 C1861 C 0.77403 0.83103 -0.02343
 C1862 C 0.78057 0.82445 -0.01256
 C1863 C 0.77628 0.81145 -0.00836
 C1864 C 0.76537 0.80483 -0.01501
 C1865 C 0.75878 0.81161 -0.02586
 C1866 C 0.76310 0.82461 -0.03003
 H1867 H 0.80517 0.86858 -0.02358
 H1868 H 0.81407 0.88997 -0.03229
 H1869 H 0.77986 0.89219 -0.06050
 H1870 H 0.77148 0.87066 -0.05161
 H1871 H 0.78906 0.82932 -0.00740
 H1872 H 0.78161 0.80653 -0.00000
 H1873 H 0.75039 0.80683 -0.03125
 H1874 H 0.75799 0.82961 -0.03849
 C1875 C 0.78544 0.28514 0.37991
 C1876 C 0.79923 0.28331 0.37670
 C1877 C 0.80443 0.28826 0.36437
 C1878 C 0.79589 0.29513 0.35505
 C1879 C 0.78200 0.29680 0.35833
 C1880 C 0.77682 0.29184 0.37068
 C1881 C 0.78026 0.28044 0.39284
 C1882 C 0.77617 0.27661 0.40380
 C1883 C 0.77158 0.27219 0.41704
 C1884 C 0.77810 0.26125 0.42358
 C1885 C 0.77417 0.25739 0.43675
 C1886 C 0.76365 0.26444 0.44357
 C1887 C 0.75700 0.27529 0.43679
 C1888 C 0.76096 0.27913 0.42362
 H1889 H 0.80601 0.27820 0.38381
 H1890 H 0.81520 0.28697 0.36228
 H1891 H 0.77513 0.30189 0.35132
 H1892 H 0.76612 0.29330 0.37307
 H1893 H 0.78636 0.25584 0.41859
 H1894 H 0.77952 0.24901 0.44164
 H1895 H 0.74888 0.28096 0.44173
 H1896 H 0.75587 0.28763 0.41866
 C1897 C 0.78791 0.78735 -0.11810
 C1898 C 0.79853 0.78059 -0.12479
 C1899 C 0.80361 0.78564 -0.13714
 C1900 C 0.79817 0.79769 -0.14312
 C1901 C 0.78730 0.80427 -0.13621
 C1902 C 0.78228 0.79915 -0.12386
 C1903 C 0.78295 0.78232 -0.10521
 C1904 C 0.77889 0.77822 -0.09434
 C1905 C 0.77416 0.77346 -0.08126
 C1906 C 0.78081 0.76260 -0.07472
 C1907 C 0.77649 0.75824 -0.06184
 C1908 C 0.76542 0.76469 -0.05530
 C1909 C 0.75872 0.77553 -0.06204
 C1910 C 0.76307 0.77987 -0.07492
 H1911 H 0.80296 0.77140 -0.12042
 H1912 H 0.81177 0.77992 -0.14185
 H1913 H 0.78263 0.81350 -0.14004
 H1914 H 0.77404 0.80449 -0.11874
 H1915 H 0.78943 0.75759 -0.07953
 H1916 H 0.78191 0.74990 -0.05696
 H1917 H 0.75019 0.78076 -0.05731
 H1918 H 0.75786 0.78831 -0.07988
 C1919 C 0.28767 0.46296 0.86798
 C1920 C 0.30148 0.46459 0.87124
 C1921 C 0.30650 0.45983 0.88373
 C1922 C 0.29777 0.45335 0.89314
 C1923 C 0.28389 0.45181 0.88978
 C1924 C 0.27888 0.45659 0.87729
 C1925 C 0.28260 0.46769 0.85503
 C1926 C 0.27850 0.47162 0.84410
 C1927 C 0.27380 0.47626 0.83097
 C1928 C 0.28045 0.48709 0.82439
 C1929 C 0.27614 0.49139 0.81148
 C1930 C 0.26509 0.48488 0.80495
 C1931 C 0.25841 0.47405 0.81172
 C1932 C 0.26274 0.46978 0.82463
 H1933 H 0.30839 0.46946 0.86409
 H1934 H 0.31727 0.46101 0.88588
 H1935 H 0.27687 0.44703 0.89686
 H1936 H 0.26816 0.45530 0.87487
 H1937 H 0.28904 0.49215 0.82920
 H1938 H 0.28156 0.49972 0.80658
 H1939 H 0.24990 0.46879 0.80700
 H1940 H 0.25754 0.46136 0.82963
 C1941 C 0.28709 -0.03706 0.36842
 C1942 C 0.29862 -0.03112 0.37434
 C1943 C 0.30361 -0.03599 0.38679
 C1944 C 0.29719 -0.04704 0.39365
 C1945 C 0.28542 -0.05279 0.38750
 C1946 C 0.28049 -0.04786 0.37504
 C1947 C 0.28220 -0.03224 0.35543
 C1948 C 0.27822 -0.02826 0.34448
 C1949 C 0.27361 -0.02361 0.33132
 C1950 C 0.28037 -0.01284 0.32474
 C1951 C 0.27614 -0.00854 0.31180
 C1952 C 0.26507 -0.01498 0.30524
 C1953 C 0.25828 -0.02574 0.31201
 C1954 C 0.26253 -0.03001 0.32496
 H1955 H 0.30383 -0.02275 0.36927
 H1956 H 0.31264 -0.03107 0.39076
 H1957 H 0.27983 -0.06109 0.39215
 H1958 H 0.27151 -0.05252 0.37055
 H1959 H 0.28898 -0.00783 0.32957
 H1960 H 0.28164 -0.00027 0.30689
 H1961 H 0.24975 -0.03096 0.30728
 H1962 H 0.25724 -0.03838 0.32995
 C1963 C -0.03818 -0.03824 -0.11757
 C1964 C -0.04884 -0.03152 -0.12425
 C1965 C -0.05395 -0.03663 -0.13656
 C1966 C -0.04851 -0.04869 -0.14250
 C1967 C -0.03760 -0.05522 -0.13559
 C1968 C -0.03255 -0.05005 -0.12329
 C1969 C -0.03320 -0.03318 -0.10471
 C1970 C -0.02912 -0.02905 -0.09386
 C1971 C -0.02437 -0.02427 -0.08080
 C1972 C -0.03100 -0.01338 -0.07430
 C1973 C -0.02667 -0.00901 -0.06143
 C1974 C -0.01563 -0.01549 -0.05486
 C1975 C -0.00896 -0.02636 -0.06156
 C1976 C -0.01332 -0.03071 -0.07444
 H1977 H -0.05327 -0.02233 -0.11991
 H1978 H -0.06213 -0.03095 -0.14127
 H1979 H -0.03292 -0.06447 -0.13940
 H1980 H -0.02428 -0.05536 -0.11817
 H1981 H -0.03960 -0.00835 -0.07913
 H1982 H -0.03207 -0.00064 -0.05657
 H1983 H -0.00046 -0.03162 -0.05681
 H1984 H -0.00814 -0.03918 -0.07937
 C1985 C -0.03713 0.46321 0.38190
 C1986 C -0.03150 0.45145 0.37606
 C1987 C -0.03645 0.44650 0.36363
 C1988 C -0.04727 0.45319 0.35672
 C1989 C -0.05268 0.46520 0.36279
 C1990 C -0.04767 0.47010 0.37522
 C1991 C -0.03227 0.46803 0.39490
 C1992 C -0.02830 0.47196 0.40587
 C1993 C -0.02367 0.47651 0.41904
 C1994 C -0.01266 0.46997 0.42539
 C1995 C -0.00840 0.47411 0.43836
 C1996 C -0.01513 0.48487 0.44519
 C1997 C -0.02614 0.49144 0.43866
 C1998 C -0.03037 0.48727 0.42568
 H1999 H -0.02332 0.44602 0.38118
 H2000 H -0.03180 0.43728 0.35974
 H2001 H -0.06077 0.47102 0.35808
 H2002 H -0.05208 0.47926 0.37965
 H2003 H -0.00743 0.46160 0.42035
 H2004 H 0.00008 0.46880 0.44308
 H2005 H -0.03158 0.49972 0.44361
 H2006 H -0.03893 0.49238 0.42087
 C2007 C 0.46509 -0.03615 0.37955
 C2008 C 0.46674 -0.05000 0.37627
 C2009 C 0.46158 -0.05513 0.36400
 C2010 C 0.45467 -0.04646 0.35482
 C2011 C 0.45318 -0.03251 0.35817
 C2012 C 0.45836 -0.02740 0.37046
 C2013 C 0.46999 -0.03104 0.39243
 C2014 C 0.47394 -0.02696 0.40335
 C2015 C 0.47845 -0.02233 0.41654
 C2016 C 0.48934 -0.02890 0.42307
 C2017 C 0.49327 -0.02491 0.43620
 C2018 C 0.48631 -0.01428 0.44300
 C2019 C 0.47552 -0.00759 0.43623
 C2020 C 0.47162 -0.01161 0.42311
 H2021 H 0.47187 -0.05689 0.38328
 H2022 H 0.46273 -0.06594 0.36185
 H2023 H 0.44808 -0.02553 0.35127
 H2024 H 0.45703 -0.01665 0.37290
 H2025 H 0.49468 -0.03724 0.41809
 H2026 H 0.50160 -0.03030 0.44109
 H2027 H 0.46992 0.00061 0.44115
 H2028 H 0.46315 -0.00648 0.41816
 C2029 C 0.46287 0.46387 -0.11862
 C2030 C 0.46966 0.45332 -0.12542
 C2031 C 0.46467 0.44835 -0.13783
 C2032 C 0.45266 0.45382 -0.14375
 C2033 C 0.44606 0.46466 -0.13674
 C2034 C 0.45112 0.46957 -0.12433
 C2035 C 0.46780 0.46868 -0.10564
 C2036 C 0.47181 0.47260 -0.09469
 C2037 C 0.47646 0.47715 -0.08153
 C2038 C 0.48750 0.47064 -0.07521
 C2039 C 0.49178 0.47480 -0.06224
 C2040 C 0.48504 0.48554 -0.05540
 C2041 C 0.47400 0.49208 -0.06191
 C2042 C 0.46975 0.48790 -0.07488
 H2043 H 0.47882 0.44885 -0.12109
 H2044 H 0.47040 0.44024 -0.14262
 H2045 H 0.43685 0.46936 -0.14053
 H2046 H 0.44577 0.47776 -0.11913
 H2047 H 0.49274 0.46228 -0.08026
 H2048 H 0.50028 0.46950 -0.05754
 H2049 H 0.46855 0.50035 -0.05695
 H2050 H 0.46117 0.49299 -0.07967
 C2051 C 0.46347 0.78625 0.36867
 C2052 C 0.45669 0.77742 0.37767
 C2053 C 0.45184 0.78232 0.39017
 C2054 C 0.45370 0.79615 0.39384
 C2055 C 0.46061 0.80491 0.38475
 C2056 C 0.46545 0.79998 0.37226
 C2057 C 0.46819 0.78130 0.35567
 C2058 C 0.47207 0.77730 0.34470
 C2059 C 0.47661 0.77270 0.33150
 C2060 C 0.46998 0.76179 0.32502
 C2061 C 0.47410 0.75760 0.31202
 C2062 C 0.48494 0.76427 0.30530
 C2063 C 0.49161 0.77516 0.31198
 C2064 C 0.48746 0.77933 0.32498
 H2065 H 0.45512 0.76676 0.37500
 H2066 H 0.44672 0.77528 0.39700
 H2067 H 0.46205 0.81563 0.38716
 H2068 H 0.47063 0.80692 0.36535
 H2069 H 0.46154 0.75661 0.32997
 H2070 H 0.46871 0.74921 0.30719
 H2071 H 0.49996 0.78056 0.30712
 H2072 H 0.49264 0.78781 0.32989
 C2073 C -0.03652 0.78649 0.86828
 C2074 C -0.04702 0.77956 0.87500
 C2075 C -0.05216 0.78455 0.88734
 C2076 C -0.04693 0.79671 0.89327
 C2077 C -0.03616 0.80345 0.88634
 C2078 C -0.03107 0.79839 0.87400
 C2079 C -0.03155 0.78156 0.85536
 C2080 C -0.02752 0.77755 0.84445
 C2081 C -0.02286 0.77288 0.83132
 C2082 C -0.02937 0.76189 0.82488
 C2083 C -0.02516 0.75765 0.81192
 C2084 C -0.01435 0.76437 0.80521
 C2085 C -0.00778 0.77534 0.81185
 C2086 C -0.01202 0.77956 0.82481
 H2087 H -0.05130 0.77029 0.87067
 H2088 H -0.06021 0.77870 0.89209
 H2089 H -0.03165 0.81278 0.89014
 H2090 H -0.02293 0.80386 0.86885
 H2091 H -0.03780 0.75668 0.82982
 H2092 H -0.03048 0.74920 0.80712
 H2093 H 0.00054 0.78078 0.80699
 H2094 H -0.00693 0.78811 0.82970
 C2095 C 0.38170 0.78711 0.28757
 C2096 C 0.37258 0.77837 0.29428
 C2097 C 0.36018 0.78344 0.29923
 C2098 C 0.35673 0.79734 0.29751
 C2099 C 0.36596 0.80602 0.29066
 C2100 C 0.37835 0.80093 0.28574
 C2101 C 0.39459 0.78199 0.28272
 C2102 C 0.40548 0.77788 0.27871
 C2103 C 0.41857 0.77316 0.27399
 C2104 C 0.42495 0.76206 0.28038
 C2105 C 0.43787 0.75775 0.27607
 C2106 C 0.44458 0.76452 0.26529
 C2107 C 0.43799 0.77561 0.25886
 C2108 C 0.42508 0.77988 0.26319
 H2109 H 0.37507 0.76765 0.29573
 H2110 H 0.35324 0.77647 0.30429
 H2111 H 0.36374 0.81679 0.28934
 H2112 H 0.38536 0.80780 0.28061
 H2113 H 0.42001 0.75680 0.28878
 H2114 H 0.44263 0.74921 0.28128
 H2115 H 0.44285 0.78108 0.25056
 H2116 H 0.42024 0.78852 0.25819
 C2117 C -0.11790 0.78689 0.78746
 C2118 C -0.12703 0.77821 0.79425
 C2119 C -0.13936 0.78337 0.79928
 C2120 C -0.14272 0.79730 0.79759
 C2121 C -0.13348 0.80590 0.79068
 C2122 C -0.12116 0.80072 0.78566
 C2123 C -0.10506 0.78169 0.78254
 C2124 C -0.09422 0.77751 0.77848
 C2125 C -0.08116 0.77274 0.77373
 C2126 C -0.07468 0.76177 0.78027
 C2127 C -0.06177 0.75746 0.77597
 C2128 C -0.05514 0.76410 0.76505
 C2129 C -0.06182 0.77503 0.75846
 C2130 C -0.07473 0.77931 0.76278
 H2131 H -0.12460 0.76747 0.79568
 H2132 H -0.14631 0.77644 0.80439
 H2133 H -0.13564 0.81670 0.78937
 H2134 H -0.11414 0.80755 0.78048
 H2135 H -0.07956 0.75663 0.78878
 H2136 H -0.05693 0.74904 0.78130
 H2137 H -0.05703 0.78040 0.75005
 H2138 H -0.07964 0.78784 0.75767
 C2139 C 0.86988 0.28502 0.46387
 C2140 C 0.87305 0.28336 0.45005
 C2141 C 0.88533 0.28844 0.44485
 C2142 C 0.89463 0.29529 0.45341
 C2143 C 0.89139 0.29681 0.46733
 C2144 C 0.87909 0.29171 0.47251
 C2145 C 0.85700 0.28019 0.46904
 C2146 C 0.84607 0.27629 0.47317
 C2147 C 0.83287 0.27183 0.47784
 C2148 C 0.82632 0.26086 0.47139
 C2149 C 0.81318 0.25698 0.47541
 C2150 C 0.80639 0.26406 0.48593
 C2151 C 0.81319 0.27493 0.49251
 C2152 C 0.82633 0.27878 0.48847
 H2153 H 0.86595 0.27827 0.44325
 H2154 H 0.88739 0.28728 0.43406
 H2155 H 0.89839 0.30187 0.47422
 H2156 H 0.87674 0.29305 0.48323
 H2157 H 0.83128 0.25543 0.46313
 H2158 H 0.80827 0.24859 0.47011
 H2159 H 0.80829 0.28063 0.50063
 H2160 H 0.83130 0.28732 0.49350
 C2161 C 0.86832 0.78587 -0.03816
 C2162 C 0.87170 0.78417 -0.05192
 C2163 C 0.88406 0.78924 -0.05695
 C2164 C 0.89324 0.79610 -0.04825
 C2165 C 0.88977 0.79768 -0.03440
 C2166 C 0.87740 0.79259 -0.02940
 C2167 C 0.85543 0.78094 -0.03311
 C2168 C 0.84454 0.77691 -0.02901
 C2169 C 0.83144 0.77223 -0.02428
 C2170 C 0.82485 0.76139 -0.03091
 C2171 C 0.81191 0.75714 -0.02663
 C2172 C 0.80536 0.76371 -0.01563
 C2173 C 0.81215 0.77451 -0.00895
 C2174 C 0.82509 0.77873 -0.01326
 H2175 H 0.86472 0.77904 -0.05881
 H2176 H 0.88631 0.78802 -0.06769
 H2177 H 0.89667 0.80274 -0.02741
 H2178 H 0.87489 0.79395 -0.01871
 H2179 H 0.82966 0.75631 -0.03949
 H2180 H 0.80699 0.74883 -0.03205
 H2181 H 0.80742 0.77983 -0.00048
 H2182 H 0.83009 0.78716 -0.00807
 C2183 C -0.11851 -0.03682 -0.03785
 C2184 C -0.12521 -0.04739 -0.03098
 C2185 C -0.13753 -0.05259 -0.03598
 C2186 C -0.14347 -0.04734 -0.04808
 C2187 C -0.13655 -0.03650 -0.05478
 C2188 C -0.12423 -0.03136 -0.04971
 C2189 C -0.10563 -0.03178 -0.03289
 C2190 C -0.09475 -0.02769 -0.02881
 C2191 C -0.08167 -0.02300 -0.02405
 C2192 C -0.07536 -0.02948 -0.01298
 C2193 C -0.06244 -0.02525 -0.00863
 C2194 C -0.05562 -0.01445 -0.01532
 C2195 C -0.06213 -0.00791 -0.02636
 C2196 C -0.07506 -0.01216 -0.03068
 H2197 H -0.12088 -0.05168 -0.02174
 H2198 H -0.14226 -0.06069 -0.03016
 H2199 H -0.14035 -0.03198 -0.06408
 H2200 H -0.11910 -0.02316 -0.05515
 H2201 H -0.08038 -0.03790 -0.00779
 H2202 H -0.05774 -0.03055 -0.00013
 H2203 H -0.05719 0.00040 -0.03178
 H2204 H -0.07983 -0.00710 -0.03929
 C2205 C -0.11893 0.46462 0.46348
 C2206 C -0.12506 0.45325 0.46957
 C2207 C -0.13755 0.44833 0.46472
 C2208 C -0.14423 0.45467 0.45356
 C2209 C -0.13788 0.46632 0.44768
 C2210 C -0.12539 0.47118 0.45259
 C2211 C -0.10586 0.46937 0.46824
 C2212 C -0.09483 0.47320 0.47214
 C2213 C -0.08157 0.47761 0.47669
 C2214 C -0.07517 0.47088 0.48755
 C2215 C -0.06212 0.47487 0.49173
 C2216 C -0.05527 0.48566 0.48507
 C2217 C -0.06187 0.49243 0.47421
 C2218 C -0.07492 0.48841 0.47006
 H2219 H -0.12012 0.44808 0.47803
 H2220 H -0.14168 0.43942 0.46977
 H2221 H -0.14239 0.47184 0.43928
 H2222 H -0.12073 0.48004 0.44782
 H2223 H -0.08022 0.46248 0.49273
 H2224 H -0.05736 0.46940 0.50009
 H2225 H -0.05690 0.50074 0.46882
 H2226 H -0.07978 0.49366 0.46161
 C2227 C 0.37991 -0.03500 0.46392
 C2228 C 0.37311 -0.04551 0.47079
 C2229 C 0.36082 -0.05069 0.46570
 C2230 C 0.35503 -0.04549 0.45350
 C2231 C 0.36201 -0.03466 0.44686
 C2232 C 0.37429 -0.02953 0.45201
 C2233 C 0.39285 -0.03010 0.46886
 C2234 C 0.40383 -0.02618 0.47282
 C2235 C 0.41707 -0.02170 0.47734
 C2236 C 0.42356 -0.02838 0.48818
 C2237 C 0.43672 -0.02450 0.49211
 C2238 C 0.44360 -0.01386 0.48522
 C2239 C 0.43687 -0.00707 0.47447
 C2240 C 0.42371 -0.01097 0.47056
 H2241 H 0.37736 -0.04980 0.48007
 H2242 H 0.35602 -0.05876 0.47150
 H2243 H 0.35830 -0.03016 0.43751
 H2244 H 0.37950 -0.02139 0.44659
 H2245 H 0.41853 -0.03672 0.49347
 H2246 H 0.44158 -0.02997 0.50042
 H2247 H 0.44183 0.00115 0.46893
 H2248 H 0.41878 -0.00575 0.46213
 C2249 C 0.38165 0.46443 -0.03726
 C2250 C 0.37509 0.47096 -0.04811
 C2251 C 0.36266 0.46596 -0.05304
 C2252 C 0.35647 0.45420 -0.04723
 C2253 C 0.36325 0.44787 -0.03611
 C2254 C 0.37567 0.45293 -0.03124
 C2255 C 0.39465 0.46934 -0.03247
 C2256 C 0.40562 0.47331 -0.02854
 C2257 C 0.41881 0.47786 -0.02395
 C2258 C 0.42539 0.48871 -0.03059
 C2259 C 0.43840 0.49285 -0.02641
 C2260 C 0.44502 0.48618 -0.01551
 C2261 C 0.43823 0.47536 -0.00882
 C2262 C 0.42523 0.47125 -0.01303
 H2263 H 0.37963 0.47992 -0.05283
 H2264 H 0.35807 0.47148 -0.06140
 H2265 H 0.35924 0.43887 -0.03114
 H2266 H 0.38068 0.44778 -0.02282
 H2267 H 0.42053 0.49388 -0.03908
 H2268 H 0.44332 0.50118 -0.03182
 H2269 H 0.44301 0.46997 -0.00042
 H2270 H 0.42023 0.46282 -0.00784
 C2271 C 0.36817 0.46409 0.78735
 C2272 C 0.37732 0.45748 0.77859
 C2273 C 0.38974 0.45252 0.78359
 C2274 C 0.39318 0.45412 0.79745
 C2275 C 0.38392 0.46086 0.80615
 C2276 C 0.37151 0.46580 0.80112
 C2277 C 0.35523 0.46891 0.78231
 C2278 C 0.34431 0.47286 0.77825
 C2279 C 0.33116 0.47747 0.77359
 C2280 C 0.32476 0.47091 0.76263
 C2281 C 0.31178 0.47508 0.75840
 C2282 C 0.30501 0.48589 0.76510
 C2283 C 0.31162 0.49250 0.77604
 C2284 C 0.32460 0.48831 0.78024
 H2285 H 0.37483 0.45612 0.76790
 H2286 H 0.39670 0.44754 0.77660
 H2287 H 0.38614 0.46209 0.81689
 H2288 H 0.36447 0.47084 0.80801
 H2289 H 0.32974 0.46249 0.75743
 H2290 H 0.30700 0.46974 0.74998
 H2291 H 0.30672 0.50082 0.78147
 H2292 H 0.32945 0.49343 0.78876
 C2293 C 0.36835 -0.03647 0.28738
 C2294 C 0.37202 -0.03459 0.30105
 C2295 C 0.38449 -0.03959 0.30588
 C2296 C 0.39348 -0.04657 0.29710
 C2297 C 0.38972 -0.04834 0.28334
 C2298 C 0.37725 -0.04332 0.27853
 C2299 C 0.35537 -0.03158 0.28252
 C2300 C 0.34442 -0.02758 0.27856
 C2301 C 0.33126 -0.02293 0.27395
 C2302 C 0.32474 -0.01208 0.28062
 C2303 C 0.31177 -0.00782 0.27642
 C2304 C 0.30514 -0.01439 0.26547
 C2305 C 0.31186 -0.02523 0.25877
 C2306 C 0.32482 -0.02946 0.26299
 H2307 H 0.36518 -0.02936 0.30801
 H2308 H 0.38695 -0.03822 0.31656
 H2309 H 0.39647 -0.05350 0.27628
 H2310 H 0.37452 -0.04482 0.26792
 H2311 H 0.32962 -0.00698 0.28914
 H2312 H 0.30691 0.00052 0.28185
 H2313 H 0.30706 -0.03054 0.25033
 H2314 H 0.32977 -0.03789 0.25778
 C2315 C 0.12807 0.53396 0.71709
 C2316 C 0.12425 0.54768 0.71877
 C2317 C 0.11157 0.55222 0.71407
 C2318 C 0.10252 0.54310 0.70758
 C2319 C 0.10642 0.52930 0.70605
 C2320 C 0.11911 0.52477 0.71078
 C2321 C 0.14133 0.52945 0.72153
 C2322 C 0.15254 0.52583 0.72511
 C2323 C 0.16603 0.52171 0.72920
 C2324 C 0.17280 0.52876 0.73962
 C2325 C 0.18612 0.52514 0.74324
 C2326 C 0.19288 0.51438 0.73644
 C2327 C 0.18591 0.50724 0.72608
 C2328 C 0.17259 0.51090 0.72249
 H2329 H 0.13115 0.55489 0.72358
 H2330 H 0.10900 0.56294 0.71523
 H2331 H 0.09963 0.52199 0.70127
 H2332 H 0.12196 0.51413 0.70944
 H2333 H 0.16782 0.53717 0.74486
 H2334 H 0.19116 0.53087 0.75125
 H2335 H 0.19078 0.49893 0.72062
 H2336 H 0.16745 0.50539 0.71438
 C2337 C 0.12928 0.03526 0.21515
 C2338 C 0.12012 0.04188 0.22389
 C2339 C 0.10758 0.04658 0.21892
 C2340 C 0.10403 0.04471 0.20513
 C2341 C 0.11329 0.03794 0.19645
 C2342 C 0.12582 0.03326 0.20144
 C2343 C 0.14235 0.03072 0.22012
 C2344 C 0.15341 0.02700 0.22406
 C2345 C 0.16673 0.02266 0.22849
 C2346 C 0.17346 0.02971 0.23894
 C2347 C 0.18665 0.02587 0.24282
 C2348 C 0.19332 0.01491 0.23626
 C2349 C 0.18636 0.00776 0.22588
 C2350 C 0.17317 0.01163 0.22204
 H2351 H 0.12269 0.04347 0.23453
 H2352 H 0.10062 0.05159 0.22590
 H2353 H 0.11100 0.03651 0.18575
 H2354 H 0.13287 0.02820 0.19456
 H2355 H 0.16857 0.03829 0.24398
 H2356 H 0.19169 0.03161 0.25082
 H2357 H 0.19116 -0.00071 0.22060
 H2358 H 0.16807 0.00611 0.21391
 C2359 C 0.62081 0.71526 0.21571
 C2360 C 0.62432 0.71726 0.20202
 C2361 C 0.63691 0.71268 0.19711
 C2362 C 0.64619 0.70601 0.20585
 C2363 C 0.64259 0.70413 0.21963
 C2364 C 0.62998 0.70873 0.22452
 C2365 C 0.60767 0.71969 0.22060
 C2366 C 0.59656 0.72333 0.22444
 C2367 C 0.58317 0.72758 0.22874
 C2368 C 0.57662 0.73842 0.22207
 C2369 C 0.56338 0.74220 0.22579
 C2370 C 0.55646 0.73515 0.23627
 C2371 C 0.56323 0.72438 0.24305
 C2372 C 0.57648 0.72063 0.23929
 H2373 H 0.61726 0.72224 0.19509
 H2374 H 0.63924 0.71411 0.18642
 H2375 H 0.64955 0.69919 0.22665
 H2376 H 0.62737 0.70714 0.23515
 H2377 H 0.58170 0.74386 0.21386
 H2378 H 0.55850 0.75052 0.22034
 H2379 H 0.55823 0.71872 0.25113
 H2380 H 0.58145 0.71220 0.24450
 C2381 C 0.12147 0.71565 0.71622
 C2382 C 0.13063 0.70918 0.72509
 C2383 C 0.14332 0.70471 0.72029
 C2384 C 0.14701 0.70666 0.70654
 C2385 C 0.13774 0.71327 0.69774
 C2386 C 0.12507 0.71772 0.70256
 C2387 C 0.10826 0.71994 0.72101
 C2388 C 0.09708 0.72347 0.72476
 C2389 C 0.08362 0.72761 0.72894
 C2390 C 0.07695 0.72071 0.73953
 C2391 C 0.06364 0.72437 0.74319
 C2392 C 0.05681 0.73500 0.73626
 C2393 C 0.06370 0.74199 0.72574
 C2394 C 0.07700 0.73831 0.72211
 H2395 H 0.12795 0.70755 0.73569
 H2396 H 0.15027 0.69982 0.72735
 H2397 H 0.14015 0.71474 0.68707
 H2398 H 0.11803 0.72266 0.69559
 H2399 H 0.08198 0.71239 0.74486
 H2400 H 0.05866 0.71875 0.75132
 H2401 H 0.05878 0.75021 0.72017
 H2402 H 0.08206 0.74370 0.71387
 C2403 C 0.63073 0.21394 0.53624
 C2404 C 0.62152 0.22293 0.54248
 C2405 C 0.60895 0.21809 0.54723
 C2406 C 0.60543 0.20417 0.54581
 C2407 C 0.61476 0.19524 0.53945
 C2408 C 0.62731 0.20010 0.53472
 C2409 C 0.64379 0.21882 0.53159
 C2410 C 0.65481 0.22276 0.52775
 C2411 C 0.66805 0.22729 0.52327
 C2412 C 0.67453 0.23822 0.52985
 C2413 C 0.68757 0.24235 0.52577
 C2414 C 0.69433 0.23557 0.51502
 C2415 C 0.68765 0.22466 0.50840
 C2416 C 0.67461 0.22056 0.51251
 H2417 H 0.62406 0.23366 0.54369
 H2418 H 0.60194 0.22525 0.55192
 H2419 H 0.61248 0.18445 0.53837
 H2420 H 0.63440 0.19304 0.52996
 H2421 H 0.66955 0.24347 0.53822
 H2422 H 0.69240 0.25075 0.53113
 H2423 H 0.69253 0.21919 0.50012
 H2424 H 0.66969 0.21206 0.50736
 C2425 C 0.62885 0.71574 0.03406
 C2426 C 0.61968 0.70923 0.02523
 C2427 C 0.60705 0.70466 0.03010
 C2428 C 0.60342 0.70656 0.04387
 C2429 C 0.61269 0.71321 0.05262
 C2430 C 0.62531 0.71775 0.04774
 C2431 C 0.64202 0.72010 0.02920
 C2432 C 0.65316 0.72368 0.02537
 C2433 C 0.66657 0.72785 0.02106
 C2434 C 0.67327 0.72075 0.01061
 C2435 C 0.68654 0.72442 0.00684
 C2436 C 0.69332 0.73526 0.01350
 C2437 C 0.68640 0.74244 0.02387
 C2438 C 0.67314 0.73875 0.02761
 H2439 H 0.62232 0.70762 0.01461
 H2440 H 0.60009 0.69974 0.02307
 H2441 H 0.61033 0.71465 0.06331
 H2442 H 0.63236 0.72272 0.05468
 H2443 H 0.66829 0.71227 0.00549
 H2444 H 0.69154 0.71865 -0.00117
 H2445 H 0.69129 0.75082 0.02922
 H2446 H 0.66806 0.74429 0.03574
 C2447 C 0.12045 0.03473 0.03448
 C2448 C 0.12968 0.02580 0.04077
 C2449 C 0.14218 0.03073 0.04564
 C2450 C 0.14560 0.04468 0.04428
 C2451 C 0.13627 0.05354 0.03783
 C2452 C 0.12379 0.04859 0.03298
 C2453 C 0.10740 0.02981 0.02984
 C2454 C 0.09635 0.02592 0.02607
 C2455 C 0.08302 0.02154 0.02171
 C2456 C 0.07643 0.01074 0.02841
 C2457 C 0.06321 0.00693 0.02461
 C2458 C 0.05637 0.01391 0.01404
 C2459 C 0.06319 0.02464 0.00724
 C2460 C 0.07641 0.02842 0.01107
 H2461 H 0.12720 0.01505 0.04198
 H2462 H 0.14919 0.02361 0.05040
 H2463 H 0.13846 0.06435 0.03679
 H2464 H 0.11669 0.05561 0.02818
 H2465 H 0.08145 0.00537 0.03669
 H2466 H 0.05829 -0.00135 0.03008
 H2467 H 0.05825 0.03025 -0.00092
 H2468 H 0.08140 0.03682 0.00584
 C2469 C 0.12154 0.53359 0.53360
 C2470 C 0.12520 0.54732 0.53174
 C2471 C 0.13782 0.55209 0.53639
 C2472 C 0.14698 0.54316 0.54299
 C2473 C 0.14326 0.52933 0.54470
 C2474 C 0.13062 0.52459 0.54003
 C2475 C 0.10834 0.52887 0.52920
 C2476 C 0.09718 0.52513 0.52562
 C2477 C 0.08372 0.52094 0.52147
 C2478 C 0.07702 0.52794 0.51097
 C2479 C 0.06372 0.52430 0.50730
 C2480 C 0.05691 0.51359 0.51412
 C2481 C 0.06382 0.50649 0.52456
 C2482 C 0.07713 0.51017 0.52821
 H2483 H 0.11822 0.55439 0.52684
 H2484 H 0.14026 0.56282 0.53508
 H2485 H 0.15013 0.52217 0.54957
 H2486 H 0.12789 0.51393 0.54151
 H2487 H 0.08202 0.53633 0.50571
 H2488 H 0.05873 0.53000 0.49923
 H2489 H 0.05890 0.49821 0.53005
 H2490 H 0.08221 0.50470 0.53638
 C2491 C 0.61891 0.03700 0.53582
 C2492 C 0.62245 0.03481 0.54948
 C2493 C 0.63495 0.03953 0.55447
 C2494 C 0.64410 0.04655 0.54587
 C2495 C 0.64046 0.04864 0.53213
 C2496 C 0.62794 0.04390 0.52715
 C2497 C 0.60590 0.03234 0.53081
 C2498 C 0.59492 0.02847 0.52681
 C2499 C 0.58172 0.02391 0.52224
 C2500 C 0.57531 0.01289 0.52875
 C2501 C 0.56231 0.00869 0.52463
 C2502 C 0.55551 0.01549 0.51393
 C2503 C 0.56211 0.02651 0.50737
 C2504 C 0.57512 0.03068 0.51152
 H2505 H 0.61550 0.02953 0.55629
 H2506 H 0.63732 0.03792 0.56514
 H2507 H 0.64733 0.05385 0.52521
 H2508 H 0.62531 0.04563 0.51655
 H2509 H 0.58032 0.00760 0.53709
 H2510 H 0.55754 0.00021 0.52993
 H2511 H 0.55719 0.03201 0.49913
 H2512 H 0.57998 0.03925 0.50644
 C2513 C 0.62172 0.53386 0.03366
 C2514 C 0.62527 0.53186 0.04735
 C2515 C 0.63790 0.53638 0.05220
 C2516 C 0.64718 0.54300 0.04343
 C2517 C 0.64354 0.54488 0.02965
 C2518 C 0.63089 0.54034 0.02481
 C2519 C 0.60854 0.52951 0.02884
 C2520 C 0.59739 0.52595 0.02505
 C2521 C 0.58395 0.52180 0.02080
 C2522 C 0.57740 0.51091 0.02739
 C2523 C 0.56411 0.50724 0.02371
 C2524 C 0.55716 0.51445 0.01337
 C2525 C 0.56392 0.52528 0.00668
 C2526 C 0.57722 0.52893 0.01039
 H2527 H 0.61821 0.52692 0.05430
 H2528 H 0.64026 0.53496 0.06289
 H2529 H 0.65051 0.54978 0.02261
 H2530 H 0.62825 0.54193 0.01419
 H2531 H 0.58251 0.50535 0.03549
 H2532 H 0.55924 0.49887 0.02908
 H2533 H 0.55890 0.53107 -0.00130
 H2534 H 0.58219 0.53740 0.00525
 C2535 C 0.03456 0.03369 0.12117
 C2536 C 0.04631 0.02810 0.12698
 C2537 C 0.05121 0.03303 0.13945
 C2538 C 0.04447 0.04380 0.14641
 C2539 C 0.03243 0.04914 0.14041
 C2540 C 0.02760 0.04415 0.12795
 C2541 C 0.02987 0.02899 0.10806
 C2542 C 0.02608 0.02523 0.09698
 C2543 C 0.02172 0.02096 0.08361
 C2544 C 0.02847 0.01025 0.07693
 C2545 C 0.02465 0.00651 0.06370
 C2546 C 0.01401 0.01346 0.05694
 C2547 C 0.00716 0.02409 0.06385
 C2548 C 0.01100 0.02780 0.07708
 H2549 H 0.05181 0.01999 0.12179
 H2550 H 0.06044 0.02842 0.14331
 H2551 H 0.02657 0.05717 0.14518
 H2552 H 0.01844 0.04854 0.12354
 H2553 H 0.03680 0.00491 0.08189
 H2554 H 0.03016 -0.00170 0.05871
 H2555 H -0.00106 0.02967 0.05898
 H2556 H 0.00573 0.03613 0.08215
 C2557 C 0.03456 0.53169 0.62202
 C2558 C 0.04825 0.53005 0.62574
 C2559 C 0.05285 0.53477 0.63839
 C2560 C 0.04381 0.54124 0.64751
 C2561 C 0.03003 0.54271 0.64373
 C2562 C 0.02544 0.53797 0.63106
 C2563 C 0.02998 0.52728 0.60878
 C2564 C 0.02628 0.52375 0.59759
 C2565 C 0.02204 0.51974 0.58411
 C2566 C 0.02887 0.50918 0.57728
 C2567 C 0.02513 0.50566 0.56396
 C2568 C 0.01450 0.51269 0.55727
 C2569 C 0.00760 0.52319 0.56431
 C2570 C 0.01136 0.52668 0.57763
 H2571 H 0.05540 0.52526 0.61879
 H2572 H 0.06355 0.53365 0.64088
 H2573 H 0.02278 0.54748 0.65057
 H2574 H 0.01482 0.53928 0.62829
 H2575 H 0.03718 0.50376 0.58219
 H2576 H 0.03068 0.49754 0.55887
 H2577 H -0.00062 0.52883 0.55950
 H2578 H 0.00603 0.53490 0.58282
 C2579 C 0.53692 0.03644 0.61838
 C2580 C 0.53088 0.04793 0.62433
 C2581 C 0.53563 0.05292 0.63683
 C2582 C 0.54663 0.04651 0.64372
 C2583 C 0.55248 0.03477 0.63753
 C2584 C 0.54767 0.02985 0.62502
 C2585 C 0.53221 0.03157 0.60533
 C2586 C 0.52832 0.02763 0.59433
 C2587 C 0.52376 0.02310 0.58112
 C2588 C 0.51284 0.02972 0.57469
 C2589 C 0.50863 0.02560 0.56169
 C2590 C 0.51531 0.01478 0.55492
 C2591 C 0.52622 0.00812 0.56154
 C2592 C 0.53040 0.01227 0.57454
 H2593 H 0.52253 0.05313 0.61925
 H2594 H 0.53061 0.06189 0.64083
 H2595 H 0.56078 0.02921 0.64218
 H2596 H 0.55242 0.02090 0.62050
 H2597 H 0.50764 0.03814 0.57969
 H2598 H 0.50023 0.03099 0.55691
 H2599 H 0.53162 -0.00021 0.55663
 H2600 H 0.53888 0.00709 0.57941
 C2601 C 0.53522 0.53282 0.12118
 C2602 C 0.54891 0.53114 0.12485
 C2603 C 0.55357 0.53586 0.13749
 C2604 C 0.54458 0.54237 0.14663
 C2605 C 0.53079 0.54389 0.14288
 C2606 C 0.52615 0.53914 0.13024
 C2607 C 0.53058 0.52838 0.10796
 C2608 C 0.52683 0.52482 0.09679
 C2609 C 0.52254 0.52076 0.08334
 C2610 C 0.52934 0.51018 0.07653
 C2611 C 0.52555 0.50660 0.06324
 C2612 C 0.51489 0.51361 0.05657
 C2613 C 0.50800 0.52413 0.06360
 C2614 C 0.51182 0.52767 0.07689
 H2615 H 0.55603 0.52632 0.11789
 H2616 H 0.56427 0.53470 0.13995
 H2617 H 0.52358 0.54868 0.14974
 H2618 H 0.51552 0.54049 0.12750
 H2619 H 0.53767 0.50478 0.08142
 H2620 H 0.53108 0.49847 0.05815
 H2621 H 0.49977 0.52975 0.05879
 H2622 H 0.50651 0.53590 0.08206
 C2623 C 0.21499 0.53343 0.62864
 C2624 C 0.22400 0.53988 0.61961
 C2625 C 0.21934 0.54457 0.60695
 C2626 C 0.20559 0.54286 0.60315
 C2627 C 0.19665 0.53625 0.61228
 C2628 C 0.20133 0.53158 0.62493
 C2629 C 0.21965 0.52898 0.64185
 C2630 C 0.22338 0.52538 0.65301
 C2631 C 0.22764 0.52125 0.66645
 C2632 C 0.23834 0.52811 0.67297
 C2633 C 0.24212 0.52448 0.68625
 C2634 C 0.23521 0.51392 0.69320
 C2635 C 0.22456 0.50697 0.68647
 C2636 C 0.22081 0.51063 0.67320
 H2637 H 0.23461 0.54135 0.62237
 H2638 H 0.22652 0.54945 0.60010
 H2639 H 0.18597 0.53495 0.60979
 H2640 H 0.19425 0.52666 0.63187
 H2641 H 0.24368 0.53637 0.66785
 H2642 H 0.25035 0.53006 0.69110
 H2643 H 0.21900 0.49881 0.69150
 H2644 H 0.21248 0.50527 0.66825
 C2645 C 0.21451 0.03410 0.12927
 C2646 C 0.22330 0.04090 0.12028
 C2647 C 0.21841 0.04581 0.10779
 C2648 C 0.20463 0.04397 0.10413
 C2649 C 0.19592 0.03699 0.11320
 C2650 C 0.20083 0.03210 0.12568
 C2651 C 0.21939 0.02948 0.14234
 C2652 C 0.22330 0.02574 0.15339
 C2653 C 0.22774 0.02146 0.16673
 C2654 C 0.23850 0.02829 0.17321
 C2655 C 0.24239 0.02456 0.18643
 C2656 C 0.23555 0.01394 0.19337
 C2657 C 0.22487 0.00701 0.18666
 C2658 C 0.22100 0.01076 0.17344
 H2659 H 0.23391 0.04250 0.12296
 H2660 H 0.22541 0.05097 0.10097
 H2661 H 0.18523 0.03557 0.11081
 H2662 H 0.19392 0.02691 0.13260
 H2663 H 0.24376 0.03661 0.16812
 H2664 H 0.25064 0.03013 0.19127
 H2665 H 0.21936 -0.00119 0.19167
 H2666 H 0.21264 0.00544 0.16853
 C2667 C 0.71333 0.21438 0.61933
 C2668 C 0.70694 0.22339 0.62842
 C2669 C 0.70235 0.21867 0.64109
 C2670 C 0.70410 0.20485 0.64485
 C2671 C 0.71061 0.19590 0.63565
 C2672 C 0.71518 0.20065 0.62299
 C2673 C 0.71787 0.21915 0.60619
 C2674 C 0.72164 0.22300 0.59512
 C2675 C 0.72610 0.22742 0.58184
 C2676 C 0.71962 0.23840 0.57534
 C2677 C 0.72376 0.24249 0.56230
 C2678 C 0.73446 0.23561 0.55557
 C2679 C 0.74095 0.22462 0.56225
 C2680 C 0.73679 0.22056 0.57529
 H2681 H 0.70549 0.23406 0.62570
 H2682 H 0.69755 0.22585 0.64799
 H2683 H 0.71194 0.18518 0.63812
 H2684 H 0.72006 0.19357 0.61601
 H2685 H 0.71131 0.24376 0.58031
 H2686 H 0.71851 0.25096 0.55746
 H2687 H 0.74919 0.21906 0.55739
 H2688 H 0.74186 0.21202 0.58022
 C2689 C 0.71522 0.71649 0.12106
 C2690 C 0.72417 0.71010 0.13020
 C2691 C 0.71940 0.70539 0.14281
 C2692 C 0.70559 0.70701 0.14645
 C2693 C 0.69672 0.71358 0.13723
 C2694 C 0.70151 0.71826 0.12463
 C2695 C 0.71998 0.72091 0.10788
 C2696 C 0.72378 0.72449 0.09674
 C2697 C 0.72809 0.72860 0.08330
 C2698 C 0.73873 0.72165 0.07677
 C2699 C 0.74253 0.72524 0.06349
 C2700 C 0.73570 0.73585 0.05653
 C2701 C 0.72512 0.74290 0.06328
 C2702 C 0.72135 0.73927 0.07656
 H2703 H 0.73481 0.70868 0.12754
 H2704 H 0.72652 0.70054 0.14973
 H2705 H 0.68600 0.71481 0.13960
 H2706 H 0.69448 0.72314 0.11760
 H2707 H 0.74400 0.71334 0.08189
 H2708 H 0.75070 0.71959 0.05863
 H2709 H 0.71962 0.75110 0.05826
 H2710 H 0.71307 0.74470 0.08151
 C2711 C 0.53432 0.71686 0.12861
 C2712 C 0.52538 0.71048 0.11947
 C2713 C 0.53015 0.70581 0.10685
 C2714 C 0.54396 0.70747 0.10321
 C2715 C 0.55282 0.71403 0.11243
 C2716 C 0.54803 0.71868 0.12504
 C2717 C 0.52956 0.72123 0.14180
 C2718 C 0.52576 0.72476 0.15296
 C2719 C 0.52146 0.72882 0.16641
 C2720 C 0.51097 0.72170 0.17302
 C2721 C 0.50719 0.72524 0.18631
 C2722 C 0.51389 0.73598 0.19321
 C2723 C 0.52431 0.74319 0.18638
 C2724 C 0.52806 0.73962 0.17309
 H2725 H 0.51474 0.70903 0.12213
 H2726 H 0.52304 0.70097 0.09992
 H2727 H 0.56353 0.71529 0.11006
 H2728 H 0.55505 0.72354 0.13207
 H2729 H 0.50582 0.71329 0.16795
 H2730 H 0.49915 0.71946 0.19124
 H2731 H 0.52970 0.75149 0.19136
 H2732 H 0.53622 0.74518 0.16808
 C2733 C 0.03508 0.71587 0.62884
 C2734 C 0.04878 0.71770 0.62525
 C2735 C 0.05358 0.71300 0.61267
 C2736 C 0.04474 0.70636 0.60348
 C2737 C 0.03094 0.70467 0.60715
 C2738 C 0.02616 0.70939 0.61974
 C2739 C 0.03029 0.72036 0.64199
 C2740 C 0.02647 0.72400 0.65310
 C2741 C 0.02213 0.72821 0.66650
 C2742 C 0.02902 0.73877 0.67326
 C2743 C 0.02523 0.74248 0.68650
 C2744 C 0.01448 0.73564 0.69320
 C2745 C 0.00749 0.72515 0.68622
 C2746 C 0.01132 0.72146 0.67297
 H2747 H 0.05579 0.72265 0.63225
 H2748 H 0.06429 0.71429 0.61028
 H2749 H 0.02384 0.69977 0.60025
 H2750 H 0.01552 0.70793 0.62241
 H2751 H 0.03744 0.74403 0.66835
 H2752 H 0.03084 0.75058 0.69155
 H2753 H -0.00081 0.71965 0.69104
 H2754 H 0.00594 0.71324 0.66783
 C2755 C 0.53330 0.62788 0.21512
 C2756 C 0.53163 0.62425 0.20141
 C2757 C 0.53640 0.61162 0.19668
 C2758 C 0.54295 0.60243 0.20561
 C2759 C 0.54447 0.60613 0.21941
 C2760 C 0.53967 0.61877 0.22412
 C2761 C 0.52879 0.64109 0.21983
 C2762 C 0.52514 0.65227 0.22360
 C2763 C 0.52094 0.66573 0.22789
 C2764 C 0.51042 0.67250 0.22098
 C2765 C 0.50670 0.68580 0.22475
 C2766 C 0.51349 0.69254 0.23550
 C2767 C 0.52395 0.68555 0.24249
 C2768 C 0.52764 0.67225 0.23870
 H2769 H 0.52677 0.63126 0.19433
 H2770 H 0.53524 0.60920 0.18597
 H2771 H 0.54930 0.59923 0.22658
 H2772 H 0.54101 0.62147 0.23476
 H2773 H 0.50518 0.66755 0.21258
 H2774 H 0.49862 0.69084 0.21913
 H2775 H 0.52941 0.69041 0.25079
 H2776 H 0.53583 0.66711 0.24409
 C2777 C 0.03256 0.62723 0.71536
 C2778 C 0.03890 0.61818 0.72446
 C2779 C 0.04363 0.60547 0.71987
 C2780 C 0.04209 0.60164 0.70611
 C2781 C 0.03555 0.61076 0.69709
 C2782 C 0.03084 0.62346 0.70170
 C2783 C 0.02816 0.64052 0.71994
 C2784 C 0.02463 0.65176 0.72363
 C2785 C 0.02061 0.66529 0.72787
 C2786 C 0.02750 0.67180 0.73856
 C2787 C 0.02397 0.68516 0.74232
 C2788 C 0.01350 0.69221 0.73541
 C2789 C 0.00653 0.68548 0.72477
 C2790 C 0.01008 0.67212 0.72103
 H2791 H 0.04027 0.62099 0.73506
 H2792 H 0.04844 0.59862 0.72710
 H2793 H 0.03437 0.60823 0.68641
 H2794 H 0.02601 0.63042 0.69456
 H2795 H 0.03569 0.66661 0.74390
 H2796 H 0.02956 0.69001 0.75055
 H2797 H -0.00156 0.69058 0.71921
 H2798 H 0.00471 0.66718 0.71271
 C2799 C 0.03465 0.12078 0.03533
 C2800 C 0.03261 0.12448 0.04897
 C2801 C 0.03761 0.13696 0.05386
 C2802 C 0.04474 0.14594 0.04516
 C2803 C 0.04665 0.14217 0.03143
 C2804 C 0.04163 0.12967 0.02656
 C2805 C 0.02987 0.10772 0.03048
 C2806 C 0.02599 0.09665 0.02660
 C2807 C 0.02156 0.08331 0.02219
 C2808 C 0.01075 0.07676 0.02886
 C2809 C 0.00685 0.06352 0.02502
 C2810 C 0.01376 0.05663 0.01445
 C2811 C 0.02450 0.06342 0.00767
 C2812 C 0.02836 0.07665 0.01153
 H2813 H 0.02729 0.11764 0.05588
 H2814 H 0.03613 0.13943 0.06452
 H2815 H 0.05194 0.14891 0.02443
 H2816 H 0.04326 0.12691 0.01597
 H2817 H 0.00543 0.08181 0.03715
 H2818 H -0.00143 0.05862 0.03048
 H2819 H 0.03006 0.05844 -0.00049
 H2820 H 0.03677 0.08162 0.00632
 C2821 C 0.03441 0.62097 0.53505
 C2822 C 0.04811 0.62451 0.53310
 C2823 C 0.05300 0.63715 0.53768
 C2824 C 0.04424 0.64645 0.54431
 C2825 C 0.03045 0.64282 0.54614
 C2826 C 0.02558 0.63017 0.54154
 C2827 C 0.02955 0.60779 0.53061
 C2828 C 0.02573 0.59664 0.52695
 C2829 C 0.02148 0.58319 0.52266
 C2830 C 0.02835 0.57659 0.51201
 C2831 C 0.02466 0.56330 0.50819
 C2832 C 0.01402 0.55639 0.51501
 C2833 C 0.00706 0.56321 0.52559
 C2834 C 0.01078 0.57651 0.52938
 H2835 H 0.05505 0.61744 0.52814
 H2836 H 0.06369 0.63950 0.53628
 H2837 H 0.02341 0.64980 0.55105
 H2838 H 0.01494 0.62753 0.54309
 H2839 H 0.03668 0.58166 0.50676
 H2840 H 0.03026 0.55838 0.50002
 H2841 H -0.00116 0.55823 0.53107
 H2842 H 0.00542 0.58153 0.53766
 C2843 C 0.53610 0.11943 0.53626
 C2844 C 0.53404 0.12315 0.54990
 C2845 C 0.53874 0.13579 0.55469
 C2846 C 0.54560 0.14489 0.54589
 C2847 C 0.54753 0.14109 0.53217
 C2848 C 0.54281 0.12844 0.52740
 C2849 C 0.53152 0.10628 0.53147
 C2850 C 0.52776 0.09518 0.52758
 C2851 C 0.52336 0.08186 0.52309
 C2852 C 0.51244 0.07534 0.52960
 C2853 C 0.50835 0.06225 0.52548
 C2854 C 0.51517 0.05549 0.51477
 C2855 C 0.52611 0.06219 0.50824
 C2856 C 0.53016 0.07528 0.51238
 H2857 H 0.52891 0.11623 0.55686
 H2858 H 0.53726 0.13829 0.56534
 H2859 H 0.55260 0.14792 0.52510
 H2860 H 0.54443 0.12567 0.51682
 H2861 H 0.50712 0.08033 0.53793
 H2862 H 0.49993 0.05740 0.53076
 H2863 H 0.53161 0.05730 0.49999
 H2864 H 0.53866 0.08023 0.50730
 C2865 C 0.53399 0.62183 0.03480
 C2866 C 0.54051 0.63090 0.02586
 C2867 C 0.54526 0.64356 0.03060
 C2868 C 0.54354 0.64730 0.04437
 C2869 C 0.53687 0.63813 0.05324
 C2870 C 0.53214 0.62549 0.04847
 C2871 C 0.52949 0.60862 0.03006
 C2872 C 0.52584 0.59745 0.02626
 C2873 C 0.52166 0.58400 0.02193
 C2874 C 0.52858 0.57740 0.01132
 C2875 C 0.52490 0.56410 0.00749
 C2876 C 0.51424 0.55720 0.01426
 C2877 C 0.50722 0.56402 0.02481
 C2878 C 0.51093 0.57732 0.02861
 H2879 H 0.54199 0.62817 0.01524
 H2880 H 0.55019 0.65044 0.02348
 H2881 H 0.53556 0.64058 0.06392
 H2882 H 0.52717 0.61851 0.05550
 H2883 H 0.53692 0.58247 0.00610
 H2884 H 0.53053 0.55918 -0.00065
 H2885 H 0.49898 0.55904 0.03026
 H2886 H 0.50552 0.58233 0.03687
 C2887 C 0.71356 0.13119 0.53737
 C2888 C 0.71925 0.12515 0.54896
 C2889 C 0.71434 0.11257 0.55372
 C2890 C 0.70351 0.10571 0.54698
 C2891 C 0.69802 0.11199 0.53516
 C2892 C 0.70299 0.12457 0.53046
 C2893 C 0.71839 0.14431 0.53270
 C2894 C 0.72231 0.15537 0.52885
 C2895 C 0.72684 0.16865 0.52433
 C2896 C 0.73755 0.17529 0.53108
 C2897 C 0.74171 0.18835 0.52692
 C2898 C 0.73519 0.19496 0.51593
 C2899 C 0.72448 0.18814 0.50916
 C2900 C 0.72035 0.17508 0.51334
 H2901 H 0.72744 0.13021 0.55441
 H2902 H 0.71903 0.10851 0.56282
 H2903 H 0.68992 0.10734 0.52933
 H2904 H 0.69853 0.12916 0.52142
 H2905 H 0.74262 0.17041 0.53963
 H2906 H 0.74995 0.19330 0.53240
 H2907 H 0.71921 0.19291 0.50069
 H2908 H 0.71203 0.17004 0.50807
 C2909 C 0.71650 0.62779 0.03444
 C2910 C 0.71831 0.62414 0.04813
 C2911 C 0.71361 0.61148 0.05289
 C2912 C 0.70701 0.60229 0.04400
 C2913 C 0.70534 0.60602 0.03022
 C2914 C 0.71005 0.61869 0.02549
 C2915 C 0.72097 0.64102 0.02971
 C2916 C 0.72460 0.65220 0.02592
 C2917 C 0.72878 0.66566 0.02162
 C2918 C 0.73955 0.67229 0.02826
 C2919 C 0.74325 0.68561 0.02449
 C2920 C 0.73619 0.69250 0.01401
 C2921 C 0.72548 0.68565 0.00728
 C2922 C 0.72180 0.67233 0.01107
 H2923 H 0.72322 0.63114 0.05517
 H2924 H 0.71489 0.60904 0.06358
 H2925 H 0.70046 0.59912 0.02309
 H2926 H 0.70861 0.62141 0.01486
 H2927 H 0.74500 0.66723 0.03646
 H2928 H 0.75153 0.69055 0.02991
 H2929 H 0.71980 0.69062 -0.00081
 H2930 H 0.71342 0.66730 0.00588
 C2931 C 0.21638 0.62199 0.71559
 C2932 C 0.21826 0.62570 0.70193
 C2933 C 0.21360 0.63838 0.69720
 C2934 C 0.20695 0.64754 0.70608
 C2935 C 0.20521 0.64375 0.71984
 C2936 C 0.20989 0.63106 0.72455
 C2937 C 0.22081 0.60874 0.72029
 C2938 C 0.22440 0.59754 0.72405
 C2939 C 0.22854 0.58405 0.72830
 C2940 C 0.23929 0.57741 0.72163
 C2941 C 0.24295 0.56408 0.72535
 C2942 C 0.23588 0.55718 0.73582
 C2943 C 0.22519 0.56403 0.74259
 C2944 C 0.22156 0.57737 0.73884
 H2945 H 0.22321 0.61873 0.69489
 H2946 H 0.21493 0.64086 0.68652
 H2947 H 0.20029 0.65062 0.72697
 H2948 H 0.20839 0.62829 0.73515
 H2949 H 0.24474 0.58248 0.71343
 H2950 H 0.25121 0.55913 0.71990
 H2951 H 0.21952 0.55905 0.75067
 H2952 H 0.21320 0.58241 0.74405
 C2953 C 0.21593 0.12160 0.21517
 C2954 C 0.20227 0.12518 0.21725
 C2955 C 0.19730 0.13771 0.21245
 C2956 C 0.20595 0.14686 0.20547
 C2957 C 0.21971 0.14320 0.20352
 C2958 C 0.22466 0.13065 0.20834
 C2959 C 0.22085 0.10850 0.21979
 C2960 C 0.22471 0.09740 0.22357
 C2961 C 0.22900 0.08400 0.22797
 C2962 C 0.22215 0.07745 0.23866
 C2963 C 0.22583 0.06416 0.24253
 C2964 C 0.23645 0.05723 0.23573
 C2965 C 0.24342 0.06401 0.22512
 C2966 C 0.23970 0.07730 0.22127
 H2967 H 0.19540 0.11821 0.22246
 H2968 H 0.18662 0.14008 0.21394
 H2969 H 0.22667 0.15008 0.19835
 H2970 H 0.23527 0.12799 0.20669
 H2971 H 0.21383 0.08253 0.24389
 H2972 H 0.22024 0.05928 0.25073
 H2973 H 0.25162 0.05900 0.21964
 H2974 H 0.24505 0.08227 0.21295
 C2975 C 0.71539 1.12128 0.71528
 C2976 C 0.72412 1.13034 0.70845
 C2977 C 0.71917 1.14290 0.70366
 C2978 C 0.70542 1.14656 0.70563
 C2979 C 0.69677 1.13742 0.71262
 C2980 C 0.70173 1.12487 0.71739
 C2981 C 0.72031 1.10816 0.71983
 C2982 C 0.72419 1.09704 0.72354
 C2983 C 0.72854 1.08364 0.72785
 C2984 C 0.73903 1.07689 0.72088
 C2985 C 0.74281 1.06360 0.72466
 C2986 C 0.73611 1.05686 0.73547
 C2987 C 0.72570 1.06384 0.74254
 C2988 C 0.72195 1.07713 0.73873
 H2989 H 0.73472 1.12766 0.70677
 H2990 H 0.72613 1.14977 0.69848
 H2991 H 0.68609 1.13980 0.71413
 H2992 H 0.69487 1.11790 0.72260
 H2993 H 0.74417 1.08182 0.71241
 H2994 H 0.75085 1.05855 0.71898
 H2995 H 0.72031 1.05899 0.75089
 H2996 H 0.71378 1.08225 0.74417
 C2997 C 0.71586 0.62145 0.21502
 C2998 C 0.70930 0.63052 0.22394
 C2999 C 0.70449 0.64313 0.21915
 C3000 C 0.70617 0.64685 0.20537
 C3001 C 0.71289 0.63769 0.19653
 C3002 C 0.71768 0.62509 0.20133
 C3003 C 0.72044 0.60829 0.21981
 C3004 C 0.72416 0.59715 0.22363
 C3005 C 0.72842 0.58373 0.22799
 C3006 C 0.72153 0.57708 0.23860
 C3007 C 0.72526 0.56380 0.24244
 C3008 C 0.73597 0.55696 0.23568
 C3009 C 0.74296 0.56383 0.22514
 C3010 C 0.73919 0.57711 0.22133
 H3011 H 0.70785 0.62781 0.23456
 H3012 H 0.69953 0.65001 0.22626
 H3013 H 0.71418 0.64012 0.18584
 H3014 H 0.72268 0.61812 0.19433
 H3015 H 0.71315 0.58211 0.24380
 H3016 H 0.71965 0.55884 0.25058
 H3017 H 0.75123 0.55889 0.21970
 H3018 H 0.74458 0.58215 0.21308
 C3019 C 0.53462 0.12992 0.71353
 C3020 C 0.54484 0.12295 0.72062
 C3021 C 0.54994 0.11054 0.71564
 C3022 C 0.54493 0.10479 0.70334
 C3023 C 0.53440 0.11196 0.69646
 C3024 C 0.52936 0.12436 0.70151
 C3025 C 0.52980 0.14298 0.71839
 C3026 C 0.52594 0.15403 0.72231
 C3027 C 0.52153 0.16735 0.72681
 C3028 C 0.52817 0.17382 0.73768
 C3029 C 0.52433 0.18703 0.74164
 C3030 C 0.51377 0.19398 0.73476
 C3031 C 0.50702 0.18728 0.72396
 C3032 C 0.51089 0.17407 0.72002
 H3033 H 0.54897 0.12716 0.72998
 H3034 H 0.55777 0.10560 0.72160
 H3035 H 0.53007 0.10830 0.68702
 H3036 H 0.52143 0.12971 0.69591
 H3037 H 0.53645 0.16872 0.74298
 H3038 H 0.52976 0.19186 0.74998
 H3039 H 0.49887 0.19230 0.71842
 H3040 H 0.50570 0.16916 0.71157
 C3041 C 1.03447 0.12944 0.21424
 C3042 C 1.03262 0.12581 0.20055
 C3043 C 1.03744 0.11322 0.19574
 C3044 C 1.04420 0.10408 0.20457
 C3045 C 1.04591 0.10780 0.21834
 C3046 C 1.04108 0.12040 0.22313
 C3047 C 1.02986 0.14260 0.21903
 C3048 C 1.02612 0.15372 0.22286
 C3049 C 1.02182 0.16712 0.22723
 C3050 C 1.01102 0.17372 0.22059
 C3051 C 1.00722 0.18699 0.22440
 C3052 C 1.01421 0.19387 0.23494
 C3053 C 1.02494 0.18705 0.24168
 C3054 C 1.02871 0.17378 0.23783
 H3055 H 1.02758 0.13277 0.19356
 H3056 H 1.03612 0.11080 0.18505
 H3057 H 1.05091 0.10093 0.22543
 H3058 H 1.04256 0.12310 0.23376
 H3059 H 1.00564 0.16868 0.21234
 H3060 H 0.99894 0.19192 0.21898
 H3061 H 1.03056 0.19201 0.24981
 H3062 H 1.03711 0.16877 0.24303
 C3063 C 0.21630 0.62821 0.53468
 C3064 C 0.22511 0.61903 0.54123
 C3065 C 0.22023 0.60636 0.54580
 C3066 C 0.20646 0.60270 0.54386
 C3067 C 0.19773 0.61199 0.53718
 C3068 C 0.20263 0.62464 0.53263
 C3069 C 0.22116 0.64141 0.53028
 C3070 C 0.22498 0.65258 0.52665
 C3071 C 0.22922 0.66604 0.52239
 C3072 C 0.23989 0.67273 0.52914
 C3073 C 0.24360 0.68605 0.52537
 C3074 C 0.23664 0.69287 0.51479
 C3075 C 0.22603 0.68597 0.50795
 C3076 C 0.22235 0.67266 0.51174
 H3077 H 0.23572 0.62169 0.54286
 H3078 H 0.22725 0.59938 0.55075
 H3079 H 0.18705 0.60961 0.53571
 H3080 H 0.19571 0.63170 0.52763
 H3081 H 0.24525 0.66771 0.53743
 H3082 H 0.25179 0.69104 0.53088
 H3083 H 0.22044 0.69089 0.49977
 H3084 H 0.21405 0.66758 0.50647
 C3085 C 0.21398 0.13064 1.03699
 C3086 C 0.20028 0.12709 1.03508
 C3087 C 0.19544 0.11440 1.03959
 C3088 C 0.20425 0.10506 1.04609
 C3089 C 0.21803 0.10872 1.04792
 C3090 C 0.22286 0.12142 1.04339
 C3091 C 0.21884 0.14381 1.03251
 C3092 C 0.22274 0.15491 1.02876
 C3093 C 0.22718 0.16824 1.02429
 C3094 C 0.22044 0.17479 1.01352
 C3095 C 0.22452 0.18786 1.00935
 C3096 C 0.23541 0.19459 1.01591
 C3097 C 0.24217 0.18787 1.02669
 C3098 C 0.23807 0.17478 1.03084
 H3099 H 0.19331 0.13418 1.03019
 H3100 H 0.18475 0.11202 1.03820
 H3101 H 0.22511 0.10171 1.05274
 H3102 H 0.23349 0.12406 1.04490
 H3103 H 0.21198 0.16982 1.00841
 H3104 H 0.21905 0.19273 1.00105
 H3105 H 0.25057 0.19274 1.03199
 H3106 H 0.24334 0.16981 1.03921
 C3107 C 0.21606 0.71724 0.62185
 C3108 C 0.22504 0.71086 0.63097
 C3109 C 0.22030 0.70618 0.64361
 C3110 C 0.20651 0.70781 0.64729
 C3111 C 0.19761 0.71436 0.63808
 C3112 C 0.20236 0.71902 0.62546
 C3113 C 0.22078 0.72163 0.60865
 C3114 C 0.22453 0.72517 0.59747
 C3115 C 0.22878 0.72924 0.58401
 C3116 C 0.23939 0.72228 0.57745
 C3117 C 0.24312 0.72583 0.56414
 C3118 C 0.23625 0.73641 0.55718
 C3119 C 0.22570 0.74347 0.56395
 C3120 C 0.22199 0.73989 0.57726
 H3121 H 0.23567 0.70943 0.62828
 H3122 H 0.22745 0.70134 0.65052
 H3123 H 0.18690 0.71560 0.64048
 H3124 H 0.19531 0.72388 0.61844
 H3125 H 0.24469 0.71399 0.58257
 H3126 H 0.25128 0.72017 0.55926
 H3127 H 0.22017 0.75165 0.55892
 H3128 H 0.21373 0.74533 0.58224
 C3129 C 0.21421 0.21496 1.11987
 C3130 C 0.22120 0.20456 1.12672
 C3131 C 0.21652 0.19982 1.13935
 C3132 C 0.20464 0.20538 1.14546
 C3133 C 0.19783 0.21604 1.13838
 C3134 C 0.20257 0.22072 1.12575
 C3135 C 0.21884 0.21955 1.10670
 C3136 C 0.22264 0.22329 1.09561
 C3137 C 0.22707 0.22762 1.08228
 C3138 C 0.23795 0.22094 1.07586
 C3139 C 0.24204 0.22489 1.06277
 C3140 C 0.23529 0.23560 1.05590
 C3141 C 0.22441 0.24231 1.06250
 C3142 C 0.22034 0.23834 1.07559
 H3143 H 0.23027 0.20004 1.12226
 H3144 H 0.22240 0.19183 1.14417
 H3145 H 0.18870 0.22078 1.14230
 H3146 H 0.19707 0.22879 1.12052
 H3147 H 0.24321 0.21260 1.08094
 H3148 H 0.25043 0.21947 1.05801
 H3149 H 0.21895 0.25057 1.05752
 H3150 H 0.21188 0.24356 1.08046
 C3151 C 0.71572 0.53277 0.12848
 C3152 C 0.72474 0.53916 0.11941
 C3153 C 0.72009 0.54383 0.10675
 C3154 C 0.70632 0.54217 0.10298
 C3155 C 0.69737 0.53561 0.11214
 C3156 C 0.70204 0.53096 0.12479
 C3157 C 0.72036 0.52837 0.14171
 C3158 C 0.72405 0.52482 0.15290
 C3159 C 0.72824 0.52075 0.16638
 C3160 C 0.73890 0.52766 0.17293
 C3161 C 0.74260 0.52410 0.18624
 C3162 C 0.73566 0.51356 0.19321
 C3163 C 0.72507 0.50656 0.18645
 C3164 C 0.72139 0.51015 0.17313
 H3165 H 0.73536 0.54060 0.12217
 H3166 H 0.72726 0.54867 0.09988
 H3167 H 0.68668 0.53435 0.10967
 H3168 H 0.69495 0.52609 0.13176
 H3169 H 0.74425 0.53591 0.16780
 H3170 H 0.75079 0.52972 0.19112
 H3171 H 0.71950 0.49842 0.19148
 H3172 H 0.71310 0.50475 0.16816
 C3173 C 0.71439 1.03451 0.62944
 C3174 C 0.72310 1.04130 0.62037
 C3175 C 0.71805 1.04639 0.60801
 C3176 C 0.70420 1.04476 0.60458
 C3177 C 0.69556 1.03780 0.61373
 C3178 C 0.70063 1.03273 0.62607
 C3179 C 0.71942 1.02971 0.64238
 C3180 C 0.72341 1.02584 0.65336
 C3181 C 0.72792 1.02141 0.66662
 C3182 C 0.73854 1.02833 0.67323
 C3183 C 0.74244 1.02452 0.68642
 C3184 C 0.73573 1.01371 0.69321
 C3185 C 0.72522 1.00667 0.68636
 C3186 C 0.72134 1.01051 0.67317
 H3187 H 0.73378 1.04274 0.62288
 H3188 H 0.72500 1.05154 0.60113
 H3189 H 0.68481 1.03654 0.61152
 H3190 H 0.69377 1.02755 0.63306
 H3191 H 0.74368 1.03681 0.66826
 H3192 H 0.75056 1.03018 0.69136
 H3193 H 0.71982 0.99832 0.69126
 H3194 H 0.71308 1.00511 0.66816
 C3195 C 0.53490 0.21598 0.62906
 C3196 C 0.53303 0.20216 0.62577
 C3197 C 0.53797 0.19700 0.61342
 C3198 C 0.54487 0.20560 0.60417
 C3199 C 0.54661 0.21952 0.60754
 C3200 C 0.54165 0.22466 0.61991
 C3201 C 0.53015 0.22110 0.64198
 C3202 C 0.52627 0.22512 0.65295
 C3203 C 0.52176 0.22957 0.66620
 C3204 C 0.51107 0.22272 0.67275
 C3205 C 0.50715 0.22651 0.68593
 C3206 C 0.51391 0.23723 0.69278
 C3207 C 0.52451 0.24422 0.68599
 C3208 C 0.52841 0.24040 0.67280
 H3209 H 0.52789 0.19533 0.63281
 H3210 H 0.53664 0.18621 0.61127
 H3211 H 0.55172 0.22644 0.60059
 H3212 H 0.54315 0.23539 0.62236
 H3213 H 0.50588 0.21430 0.66774
 H3214 H 0.49897 0.22089 0.69083
 H3215 H 0.52996 0.25250 0.69094
 H3216 H 0.53673 0.24575 0.66784
 C3217 C 1.03515 0.21656 0.12841
 C3218 C 1.02896 0.20521 0.12235
 C3219 C 1.03386 0.20009 0.10996
 C3220 C 1.04518 0.20620 0.10332
 C3221 C 1.05112 0.21786 0.10957
 C3222 C 1.04616 0.22292 0.12196
 C3223 C 1.03046 0.22141 0.14147
 C3224 C 1.02665 0.22525 0.15252
 C3225 C 1.02227 0.22958 0.16585
 C3226 C 1.01150 0.22279 0.17236
 C3227 C 1.00765 0.22653 0.18558
 C3228 C 1.01455 0.23712 0.19250
 C3229 C 1.02523 0.24402 0.18577
 C3230 C 1.02906 0.24025 0.17254
 H3231 H 1.02041 0.20019 0.12728
 H3232 H 1.02873 0.19121 0.10588
 H3233 H 1.05964 0.22322 0.10509
 H3234 H 1.05102 0.23176 0.12658
 H3235 H 1.00620 0.21449 0.16729
 H3236 H 0.99939 0.22098 0.19044
 H3237 H 1.03078 0.25220 0.19077
 H3238 H 1.03743 0.24555 0.16760
 C3239 C 0.62068 0.21595 0.71518
 C3240 C 0.62964 0.22473 0.70831
 C3241 C 0.64215 0.21981 0.70348
 C3242 C 0.64586 0.20602 0.70548
 C3243 C 0.63681 0.19731 0.71251
 C3244 C 0.62431 0.20225 0.71731
 C3245 C 0.60761 0.22084 0.71978
 C3246 C 0.59655 0.22471 0.72353
 C3247 C 0.58320 0.22906 0.72787
 C3248 C 0.57658 0.23979 0.72110
 C3249 C 0.56335 0.24358 0.72490
 C3250 C 0.55654 0.23665 0.73552
 C3251 C 0.56339 0.22599 0.74238
 C3252 C 0.57662 0.22223 0.73857
 H3253 H 0.62693 0.23536 0.70661
 H3254 H 0.64895 0.22681 0.69827
 H3255 H 0.63923 0.18660 0.71404
 H3256 H 0.61742 0.19534 0.72256
 H3257 H 0.58157 0.24512 0.71278
 H3258 H 0.55840 0.25182 0.71938
 H3259 H 0.55848 0.22042 0.75059
 H3260 H 0.58165 0.21388 0.74385
 C3261 C 1.12118 0.21617 0.21516
 C3262 C 1.12482 0.20247 0.21724
 C3263 C 1.13734 0.19756 0.21246
 C3264 C 1.14640 0.20631 0.20549
 C3265 C 1.14269 0.22011 0.20355
 C3266 C 1.13015 0.22500 0.20835
 C3267 C 1.10809 0.22103 0.21973
 C3268 C 1.09700 0.22486 0.22347
 C3269 C 1.08364 0.22915 0.22779
 C3270 C 1.07701 0.22220 0.23838
 C3271 C 1.06376 0.22592 0.24218
 C3272 C 1.05694 0.23665 0.23540
 C3273 C 1.06379 0.24371 0.22489
 C3274 C 1.07704 0.23996 0.22111
 H3275 H 1.11792 0.19553 0.22243
 H3276 H 1.13976 0.18685 0.21395
 H3277 H 1.14949 0.22714 0.19838
 H3278 H 1.12743 0.23563 0.20669
 H3279 H 1.08201 0.21379 0.24359
 H3280 H 1.05882 0.22025 0.25030
 H3281 H 1.05887 0.25200 0.21944
 H3282 H 1.08207 0.24539 0.21287
 C3283 C 0.12919 0.71548 0.53417
 C3284 C 0.12554 0.70174 0.53237
 C3285 C 0.11294 0.69697 0.53706
 C3286 C 0.10378 0.70590 0.54366
 C3287 C 0.10750 0.71973 0.54533
 C3288 C 0.12013 0.72448 0.54062
 C3289 C 0.14236 0.72021 0.52969
 C3290 C 0.15350 0.72396 0.52602
 C3291 C 0.16693 0.72816 0.52178
 C3292 C 0.17360 0.72114 0.51128
 C3293 C 0.18687 0.72481 0.50752
 C3294 C 0.19368 0.73558 0.51425
 C3295 C 0.18679 0.74270 0.52469
 C3296 C 0.17351 0.73899 0.52842
 H3297 H 0.13251 0.69467 0.52746
 H3298 H 0.11051 0.68624 0.53579
 H3299 H 0.10063 0.72690 0.55020
 H3300 H 0.12285 0.73515 0.54206
 H3301 H 0.16860 0.71271 0.50609
 H3302 H 0.19184 0.71910 0.49946
 H3303 H 0.19170 0.75102 0.53011
 H3304 H 0.16845 0.74448 0.53660
 C3305 C 0.13127 0.21333 1.03609
 C3306 C 0.12767 0.21529 1.04977
 C3307 C 0.11504 0.21071 1.05458
 C3308 C 0.10581 0.20409 1.04576
 C3309 C 0.10951 0.20222 1.03200
 C3310 C 0.12216 0.20682 1.02721
 C3311 C 0.14438 0.21789 1.03125
 C3312 C 0.15544 0.22168 1.02737
 C3313 C 0.16871 0.22616 1.02292
 C3314 C 0.17511 0.23718 1.02943
 C3315 C 0.18815 0.24133 1.02538
 C3316 C 0.19500 0.23450 1.01473
 C3317 C 0.18841 0.22348 1.00818
 C3318 C 0.17536 0.21935 1.01226
 H3319 H 0.13467 0.22027 1.05674
 H3320 H 0.11261 0.21213 1.06525
 H3321 H 0.10259 0.19732 1.02492
 H3322 H 0.12484 0.20527 1.01659
 H3323 H 0.17005 0.24250 1.03772
 H3324 H 0.19290 0.24983 1.03068
 H3325 H 0.19337 0.21795 0.99999
 H3326 H 0.17051 0.21078 1.00717
 C3327 C 0.62863 0.53425 0.21645
 C3328 C 0.62490 0.54798 0.21820
 C3329 C 0.61229 0.55266 0.21343
 C3330 C 0.60322 0.54365 0.20682
 C3331 C 0.60702 0.52983 0.20523
 C3332 C 0.61964 0.52517 0.21001
 C3333 C 0.64182 0.52960 0.22097
 C3334 C 0.65297 0.52589 0.22463
 C3335 C 0.66640 0.52167 0.22884
 C3336 C 0.67309 0.52865 0.23936
 C3337 C 0.68637 0.52496 0.24308
 C3338 C 0.69316 0.51422 0.23629
 C3339 C 0.68626 0.50715 0.22583
 C3340 C 0.67298 0.51087 0.22214
 H3341 H 0.63181 0.55511 0.22311
 H3342 H 0.60979 0.56338 0.21465
 H3343 H 0.60021 0.52261 0.20035
 H3344 H 0.62243 0.51452 0.20862
 H3345 H 0.66810 0.53706 0.24459
 H3346 H 0.69136 0.53064 0.25115
 H3347 H 0.69116 0.49885 0.22037
 H3348 H 0.66790 0.50542 0.21395
 C3349 C 0.62964 1.03602 0.71432
 C3350 C 0.62072 1.02726 0.70737
 C3351 C 0.60835 1.03227 0.70226
 C3352 C 0.60474 1.04612 0.70403
 C3353 C 0.61376 1.05480 0.71112
 C3354 C 0.62611 1.04978 0.71621
 C3355 C 0.64256 1.03102 0.71922
 C3356 C 0.65351 1.02703 0.72320
 C3357 C 0.66672 1.02248 0.72776
 C3358 C 0.67322 1.01156 0.72119
 C3359 C 0.68634 1.00757 0.72516
 C3360 C 0.69316 1.01448 0.73578
 C3361 C 0.68642 1.02532 0.74247
 C3362 C 0.67330 1.02928 0.73847
 H3363 H 0.62335 1.01659 0.70585
 H3364 H 0.60158 1.02528 0.69700
 H3365 H 0.61142 1.06555 0.71250
 H3366 H 0.63298 1.05668 0.72151
 H3367 H 0.66823 1.00624 0.71286
 H3368 H 0.69121 0.99921 0.71976
 H3369 H 0.69135 1.03088 0.75066
 H3370 H 0.66837 1.03777 0.74361
 C3371 C 0.86827 0.46393 0.28784
 C3372 C 0.87159 0.46553 0.30164
 C3373 C 0.88399 0.46055 0.30665
 C3374 C 0.89325 0.45386 0.29793
 C3375 C 0.88985 0.45237 0.28405
 C3376 C 0.87744 0.45738 0.27905
 C3377 C 0.85536 0.46880 0.28280
 C3378 C 0.84445 0.47278 0.27872
 C3379 C 0.83132 0.47740 0.27402
 C3380 C 0.82472 0.48823 0.28066
 C3381 C 0.81176 0.49243 0.27640
 C3382 C 0.80520 0.48584 0.26543
 C3383 C 0.81201 0.47504 0.25874
 C3384 C 0.82497 0.47087 0.26302
 H3385 H 0.86454 0.47054 0.30855
 H3386 H 0.88618 0.46169 0.31741
 H3387 H 0.89681 0.44743 0.27703
 H3388 H 0.87498 0.45609 0.26835
 H3389 H 0.82954 0.49333 0.28921
 H3390 H 0.80683 0.50074 0.28182
 H3391 H 0.80727 0.46971 0.25028
 H3392 H 0.82998 0.46245 0.25783
 C3393 C 0.86732 0.96168 0.78831
 C3394 C 0.87057 0.94782 0.78659
 C3395 C 0.88289 0.94266 0.79161
 C3396 C 0.89215 0.95130 0.79845
 C3397 C 0.88880 0.96524 0.80006
 C3398 C 0.87647 0.97038 0.79502
 C3399 C 0.85449 0.96687 0.78336
 C3400 C 0.84366 0.97106 0.77927
 C3401 C 0.83064 0.97587 0.77445
 C3402 C 0.82418 0.96920 0.76359
 C3403 C 0.81133 0.97356 0.75916
 C3404 C 0.80474 0.98467 0.76556
 C3405 C 0.81141 0.99137 0.77640
 C3406 C 0.82426 0.98699 0.78081
 H3407 H 0.86353 0.94098 0.78147
 H3408 H 0.88504 0.93186 0.79037
 H3409 H 0.89577 0.97219 0.80511
 H3410 H 0.87406 0.98113 0.79639
 H3411 H 0.82901 0.96056 0.75861
 H3412 H 0.80650 0.96813 0.75082
 H3413 H 0.80664 0.99992 0.78160
 H3414 H 0.82917 0.99220 0.78925
 C3415 C 0.38131 0.28680 0.78738
 C3416 C 0.37771 0.28487 0.80106
 C3417 C 0.36516 0.28964 0.80590
 C3418 C 0.35603 0.29645 0.79711
 C3419 C 0.35973 0.29826 0.78334
 C3420 C 0.37229 0.29347 0.77852
 C3421 C 0.39437 0.28213 0.78250
 C3422 C 0.40536 0.27831 0.77850
 C3423 C 0.41856 0.27386 0.77384
 C3424 C 0.42508 0.26282 0.78021
 C3425 C 0.43805 0.25869 0.77591
 C3426 C 0.44470 0.26557 0.76516
 C3427 C 0.43800 0.27661 0.75876
 C3428 C 0.42503 0.28071 0.76308
 H3429 H 0.38465 0.27977 0.80802
 H3430 H 0.36273 0.28825 0.81658
 H3431 H 0.35288 0.30329 0.77628
 H3432 H 0.37497 0.29499 0.76790
 H3433 H 0.42018 0.25746 0.78856
 H3434 H 0.44290 0.25018 0.78109
 H3435 H 0.44281 0.28217 0.75049
 H3436 H 0.42008 0.28929 0.75810
 C3437 C 0.88157 0.28640 0.28680
 C3438 C 0.87799 0.28437 0.30047
 C3439 C 0.86550 0.28922 0.30540
 C3440 C 0.85641 0.29620 0.29670
 C3441 C 0.86009 0.29812 0.28295
 C3442 C 0.87258 0.29325 0.27804
 C3443 C 0.89456 0.28165 0.28185
 C3444 C 0.90553 0.27774 0.27784
 C3445 C 0.91871 0.27320 0.27320
 C3446 C 0.92534 0.26241 0.27987
 C3447 C 0.93834 0.25826 0.27566
 C3448 C 0.94490 0.26488 0.26469
 C3449 C 0.93807 0.27565 0.25798
 C3450 C 0.92508 0.27977 0.26222
 H3451 H 0.88490 0.27914 0.30736
 H3452 H 0.86310 0.28774 0.31607
 H3453 H 0.85326 0.30329 0.27595
 H3454 H 0.87525 0.29486 0.26742
 H3455 H 0.92052 0.25727 0.28842
 H3456 H 0.94329 0.24997 0.28109
 H3457 H 0.94280 0.28100 0.24953
 H3458 H 0.92005 0.28816 0.25701
 C3459 C 0.36892 0.78591 0.46290
 C3460 C 0.37794 0.77713 0.45610
 C3461 C 0.39044 0.78209 0.45129
 C3462 C 0.39408 0.79591 0.45320
 C3463 C 0.38495 0.80462 0.46011
 C3464 C 0.37247 0.79965 0.46491
 C3465 C 0.35593 0.78092 0.46763
 C3466 C 0.34497 0.77692 0.47156
 C3467 C 0.33179 0.77235 0.47618
 C3468 C 0.32517 0.76153 0.46954
 C3469 C 0.31218 0.75737 0.47377
 C3470 C 0.30562 0.76400 0.48472
 C3471 C 0.31243 0.77480 0.49140
 C3472 C 0.32542 0.77893 0.48714
 H3473 H 0.37530 0.76647 0.45451
 H3474 H 0.39729 0.77508 0.44617
 H3475 H 0.38733 0.81535 0.46159
 H3476 H 0.36553 0.80655 0.47010
 H3477 H 0.33001 0.75638 0.46101
 H3478 H 0.30724 0.74906 0.46836
 H3479 H 0.30769 0.78016 0.49983
 H3480 H 0.33044 0.78734 0.49233
 C3481 C 0.37033 0.28548 0.96430
 C3482 C 0.37356 0.28371 0.95051
 C3483 C 0.38586 0.28877 0.94532
 C3484 C 0.39511 0.29571 0.95386
 C3485 C 0.39180 0.29735 0.96775
 C3486 C 0.37949 0.29227 0.97292
 C3487 C 0.35746 0.28062 0.96946
 C3488 C 0.34654 0.27666 0.97355
 C3489 C 0.33335 0.27208 0.97813
 C3490 C 0.32679 0.26127 0.97143
 C3491 C 0.31367 0.25728 0.97538
 C3492 C 0.30690 0.26407 0.98610
 C3493 C 0.31369 0.27479 0.99292
 C3494 C 0.32682 0.27876 0.98895
 H3495 H 0.36651 0.27853 0.94372
 H3496 H 0.38797 0.28750 0.93455
 H3497 H 0.39876 0.30249 0.97463
 H3498 H 0.37709 0.29370 0.98362
 H3499 H 0.33174 0.25606 0.96302
 H3500 H 0.30876 0.24901 0.96988
 H3501 H 0.30880 0.28026 1.00120
 H3502 H 0.33179 0.28717 0.99418
 C3503 C 0.78733 0.46355 0.36849
 C3504 C 0.77846 0.45726 0.37778
 C3505 C 0.78337 0.45255 0.39033
 C3506 C 0.79723 0.45408 0.39378
 C3507 C 0.80604 0.46048 0.38438
 C3508 C 0.80111 0.46517 0.37184
 C3509 C 0.78235 0.46818 0.35547
 C3510 C 0.77833 0.47202 0.34448
 C3511 C 0.77371 0.47655 0.33129
 C3512 C 0.76271 0.47001 0.32493
 C3513 C 0.75844 0.47419 0.31196
 C3514 C 0.76514 0.48499 0.30517
 C3515 C 0.77614 0.49156 0.31172
 C3516 C 0.78038 0.48735 0.32468
 H3517 H 0.76775 0.45597 0.37530
 H3518 H 0.77629 0.44783 0.39739
 H3519 H 0.81680 0.46164 0.38661
 H3520 H 0.80808 0.46998 0.36470
 H3521 H 0.75749 0.46161 0.32995
 H3522 H 0.74997 0.46887 0.30722
 H3523 H 0.78157 0.49987 0.30680
 H3524 H 0.78893 0.49247 0.32951
 C3525 C 0.78671 0.96234 0.86814
 C3526 C 0.79342 0.97113 0.87721
 C3527 C 0.79856 0.96608 0.88954
 C3528 C 0.79705 0.95215 0.89297
 C3529 C 0.79021 0.94342 0.88380
 C3530 C 0.78509 0.94849 0.87148
 C3531 C 0.78172 0.96743 0.85529
 C3532 C 0.77764 0.97155 0.84443
 C3533 C 0.77292 0.97631 0.83135
 C3534 C 0.77941 0.98735 0.82496
 C3535 C 0.77518 0.99166 0.81202
 C3536 C 0.76437 0.98495 0.80528
 C3537 C 0.75782 0.97394 0.81189
 C3538 C 0.76208 0.96966 0.82482
 H3539 H 0.79472 0.98188 0.87473
 H3540 H 0.80361 0.97310 0.89644
 H3541 H 0.78905 0.93262 0.88601
 H3542 H 0.77998 0.94158 0.86450
 H3543 H 0.78784 0.99255 0.82991
 H3544 H 0.78048 1.00014 0.80725
 H3545 H 0.74951 0.96851 0.80701
 H3546 H 0.75701 0.96107 0.82967
 C3547 C 0.28740 0.78735 0.38209
 C3548 C 0.29406 0.77858 0.37297
 C3549 C 0.29899 0.78361 0.36054
 C3550 C 0.29730 0.79751 0.35707
 C3551 C 0.29051 0.80622 0.36629
 C3552 C 0.28561 0.80117 0.37870
 C3553 C 0.28259 0.78228 0.39501
 C3554 C 0.27863 0.77817 0.40592
 C3555 C 0.27398 0.77345 0.41903
 C3556 C 0.28071 0.76265 0.42559
 C3557 C 0.27647 0.75834 0.43852
 C3558 C 0.26542 0.76481 0.44509
 C3559 C 0.25866 0.77559 0.43834
 C3560 C 0.26293 0.77987 0.42541
 H3561 H 0.29549 0.76786 0.37548
 H3562 H 0.30400 0.77660 0.35361
 H3563 H 0.28922 0.81700 0.36404
 H3564 H 0.28052 0.80807 0.38571
 H3565 H 0.28931 0.75763 0.42075
 H3566 H 0.28194 0.75004 0.44342
 H3567 H 0.25015 0.78083 0.44309
 H3568 H 0.25767 0.78827 0.42044
 C3569 C 0.28501 0.28539 0.88002
 C3570 C 0.29179 0.27666 0.87095
 C3571 C 0.29681 0.28174 0.85858
 C3572 C 0.29512 0.29564 0.85512
 C3573 C 0.28818 0.30430 0.86428
 C3574 C 0.28318 0.29920 0.87664
 C3575 C 0.28024 0.28034 0.89297
 C3576 C 0.27638 0.27633 0.90395
 C3577 C 0.27194 0.27181 0.91721
 C3578 C 0.27886 0.26121 0.92388
 C3579 C 0.27502 0.25731 0.93706
 C3580 C 0.26420 0.26400 0.94378
 C3581 C 0.25716 0.27450 0.93687
 C3582 C 0.26103 0.27838 0.92369
 H3583 H 0.29326 0.26595 0.87348
 H3584 H 0.30195 0.27477 0.85170
 H3585 H 0.28688 0.31508 0.86206
 H3586 H 0.27801 0.30607 0.88362
 H3587 H 0.28735 0.25608 0.91897
 H3588 H 0.28068 0.24920 0.94206
 H3589 H 0.24880 0.27989 0.94171
 H3590 H 0.25562 0.28663 0.91862
 C3591 C 0.46353 0.28710 0.86836
 C3592 C 0.47228 0.29396 0.87735
 C3593 C 0.46734 0.29883 0.88984
 C3594 C 0.45358 0.29688 0.89350
 C3595 C 0.44491 0.28990 0.88440
 C3596 C 0.44986 0.28506 0.87192
 C3597 C 0.46849 0.28235 0.85537
 C3598 C 0.47248 0.27843 0.84441
 C3599 C 0.47704 0.27384 0.83122
 C3600 C 0.48784 0.28052 0.82466
 C3601 C 0.49197 0.27637 0.81164
 C3602 C 0.48533 0.26545 0.80499
 C3603 C 0.47456 0.25871 0.81175
 C3604 C 0.47045 0.26289 0.82476
 H3605 H 0.48289 0.29558 0.87470
 H3606 H 0.47432 0.30400 0.89667
 H3607 H 0.43423 0.28841 0.88678
 H3608 H 0.44298 0.27982 0.86501
 H3609 H 0.49299 0.28904 0.82955
 H3610 H 0.50027 0.28181 0.80675
 H3611 H 0.46919 0.25030 0.80694
 H3612 H 0.46205 0.25767 0.82974
 C3613 C 0.96292 0.28746 0.36767
 C3614 C 0.97166 0.29425 0.37672
 C3615 C 0.96672 0.29901 0.38924
 C3616 C 0.95296 0.29704 0.39288
 C3617 C 0.94428 0.29015 0.38372
 C3618 C 0.94924 0.28540 0.37120
 C3619 C 0.96791 0.28277 0.35467
 C3620 C 0.97192 0.27889 0.34370
 C3621 C 0.97654 0.27431 0.33053
 C3622 C 0.98753 0.28085 0.32413
 C3623 C 0.99177 0.27664 0.31116
 C3624 C 0.98507 0.26582 0.30441
 C3625 C 0.97409 0.25926 0.31101
 C3626 C 0.96987 0.26349 0.32397
 H3627 H 0.98228 0.29588 0.37409
 H3628 H 0.97370 0.30412 0.39613
 H3629 H 0.93360 0.28864 0.38608
 H3630 H 0.94237 0.28022 0.36424
 H3631 H 0.99275 0.28926 0.32911
 H3632 H 1.00023 0.28196 0.30640
 H3633 H 0.96866 0.25093 0.30612
 H3634 H 0.96133 0.25838 0.32882
 C3635 C 0.46244 0.36925 0.78698
 C3636 C 0.45584 0.37850 0.77829
 C3637 C 0.45094 0.39095 0.78337
 C3638 C 0.45258 0.39432 0.79724
 C3639 C 0.45932 0.38497 0.80587
 C3640 C 0.46420 0.37253 0.80077
 C3641 C 0.46723 0.35630 0.78186
 C3642 C 0.47118 0.34536 0.77772
 C3643 C 0.47581 0.33221 0.77299
 C3644 C 0.46908 0.32566 0.76222
 C3645 C 0.47330 0.31267 0.75791
 C3646 C 0.48434 0.30604 0.76435
 C3647 C 0.49111 0.31279 0.77510
 C3648 C 0.48686 0.32578 0.77937
 H3649 H 0.45444 0.37606 0.76759
 H3650 H 0.44596 0.39798 0.77643
 H3651 H 0.46058 0.38714 0.81662
 H3652 H 0.46925 0.36542 0.80760
 H3653 H 0.46049 0.33054 0.75723
 H3654 H 0.46782 0.30778 0.74964
 H3655 H 0.49961 0.30800 0.78031
 H3656 H 0.49212 0.33074 0.78775
 C3657 C 0.96268 0.36915 0.28686
 C3658 C 0.95604 0.37843 0.27823
 C3659 C 0.95110 0.39083 0.28340
 C3660 C 0.95274 0.39412 0.29729
 C3661 C 0.95951 0.38473 0.30586
 C3662 C 0.96443 0.37234 0.30067
 C3663 C 0.96753 0.35625 0.28165
 C3664 C 0.97154 0.34535 0.27748
 C3665 C 0.97626 0.33222 0.27274
 C3666 C 0.96963 0.32567 0.26190
 C3667 C 0.97392 0.31270 0.25762
 C3668 C 0.98491 0.30609 0.26415
 C3669 C 0.99159 0.31285 0.27495
 C3670 C 0.98728 0.32582 0.27920
 H3671 H 0.95465 0.37607 0.26751
 H3672 H 0.94610 0.39789 0.27651
 H3673 H 0.96077 0.38682 0.31662
 H3674 H 0.96950 0.36520 0.30745
 H3675 H 0.96106 0.33053 0.25685
 H3676 H 0.96852 0.30779 0.24931
 H3677 H 1.00006 0.30808 0.28023
 H3678 H 0.99246 0.33079 0.28762
 C3679 C 0.28742 0.86856 0.46311
 C3680 C 0.27864 0.87753 0.45624
 C3681 C 0.28354 0.89003 0.45126
 C3682 C 0.29731 0.89373 0.45309
 C3683 C 0.30603 0.88466 0.46008
 C3684 C 0.30110 0.87217 0.46504
 C3685 C 0.28248 0.85556 0.46798
 C3686 C 0.27848 0.84458 0.47198
 C3687 C 0.27386 0.83139 0.47664
 C3688 C 0.26292 0.82490 0.47014
 C3689 C 0.25871 0.81188 0.47437
 C3690 C 0.26541 0.80516 0.48519
 C3691 C 0.27633 0.81185 0.49174
 C3692 C 0.28052 0.82487 0.48748
 H3693 H 0.26802 0.87485 0.45470
 H3694 H 0.27654 0.89685 0.44608
 H3695 H 0.31671 0.88707 0.46149
 H3696 H 0.30800 0.86527 0.47029
 H3697 H 0.25772 0.82984 0.46171
 H3698 H 0.25029 0.80704 0.46907
 H3699 H 0.28175 0.80699 0.50007
 H3700 H 0.28903 0.82979 0.49256
 C3701 C 0.28656 0.37038 0.96463
 C3702 C 0.27793 0.37949 0.95775
 C3703 C 0.28308 0.39181 0.95258
 C3704 C 0.29695 0.39519 0.95422
 C3705 C 0.30551 0.38600 0.96125
 C3706 C 0.30034 0.37369 0.96640
 C3707 C 0.28141 0.35749 0.96957
 C3708 C 0.27732 0.34655 0.97358
 C3709 C 0.27269 0.33334 0.97820
 C3710 C 0.26189 0.32677 0.97153
 C3711 C 0.25788 0.31361 0.97553
 C3712 C 0.26464 0.30683 0.98627
 C3713 C 0.27534 0.31364 0.99306
 C3714 C 0.27933 0.32679 0.98903
 H3715 H 0.26724 0.37703 0.95632
 H3716 H 0.27619 0.39873 0.94737
 H3717 H 0.31626 0.38817 0.96252
 H3718 H 0.30713 0.36668 0.97164
 H3719 H 0.25671 0.33173 0.96310
 H3720 H 0.24962 0.30869 0.97006
 H3721 H 0.28079 0.30874 1.00135
 H3722 H 0.28773 0.33178 0.99424
 C3723 C 0.78711 0.38120 0.28682
 C3724 C 0.79393 0.37218 0.27806
 C3725 C 0.79881 0.35965 0.28299
 C3726 C 0.79693 0.35597 0.29675
 C3727 C 0.78999 0.36510 0.30544
 C3728 C 0.78513 0.37762 0.30050
 C3729 C 0.78232 0.39422 0.28186
 C3730 C 0.77836 0.40521 0.27785
 C3731 C 0.77371 0.41842 0.27326
 C3732 C 0.78029 0.42500 0.26241
 C3733 C 0.77605 0.43802 0.25822
 C3734 C 0.76515 0.44466 0.26485
 C3735 C 0.75852 0.43789 0.27569
 C3736 C 0.76279 0.42487 0.27985
 H3737 H 0.79550 0.37484 0.26744
 H3738 H 0.80395 0.35279 0.27600
 H3739 H 0.78854 0.36270 0.31613
 H3740 H 0.77992 0.38456 0.30739
 H3741 H 0.78878 0.42011 0.25725
 H3742 H 0.78141 0.44293 0.24987
 H3743 H 0.75013 0.44269 0.28106
 H3744 H 0.75764 0.41988 0.28829
   
