data_POSCAR
  _audit_creation_date              2014-09-24
  _audit_creation_method            'ToBaCCo'
  _symmetry_space_group_name_H-M    'P1'
  _symmetry_Int_Tables_number       1
  _symmetry_cell_setting            triclinic
  loop_
  _symmetry_equiv_pos_as_xyz
 x,y,z
_cell_length_a 45.9962
_cell_length_b 45.4849
_cell_length_c 45.5922
_cell_angle_alpha 90.067500
_cell_angle_beta 90.346900
_cell_angle_gamma 90.137600
loop_
  _atom_site_label
  _atom_site_type_symbol
  _atom_site_fract_x
  _atom_site_fract_y
  _atom_site_fract_z
O1 O 0.26946 1.03725 0.02364
 O2 O 0.28807 0.97206 -0.02034
 O3 O 0.28862 1.02910 -0.02871
 O4 O 0.26870 0.98053 0.03257
 O5 O 0.22385 0.97833 0.01528
 O6 O 0.24375 1.02667 -0.04609
 O7 O 0.24336 0.97077 -0.03796
 O8 O 0.22473 1.03576 0.00585
 Cu9 Cu 0.28321 1.00479 0.00354
 Cu10 Cu 0.22926 1.00245 -0.01711
 C11 C 0.24417 1.04820 0.02143
 C12 C 0.26895 0.96036 -0.03694
 C13 C 0.26953 1.03657 -0.04755
 C14 C 0.24285 0.97086 0.03420
 O15 O 0.71682 0.52199 0.52795
 O16 O 0.73377 0.46691 0.47165
 O17 O 0.71360 0.46479 0.52553
 O18 O 0.73738 0.52384 0.47563
 O19 O 0.78155 0.52105 0.49465
 O20 O 0.75860 0.46009 0.54198
 O21 O 0.77853 0.46364 0.48906
 O22 O 0.76079 0.51723 0.54700
 Cu23 Cu 0.72087 0.49449 0.49839
 Cu24 Cu 0.77437 0.49002 0.51985
 C25 C 0.73592 0.52936 0.54682
 C26 C 0.75911 0.45598 0.47063
 C27 C 0.73209 0.45232 0.54218
 C28 C 0.76339 0.53316 0.47741
 O29 O 0.74962 0.97404 1.04544
 O30 O 0.74251 1.01250 0.97441
 O31 O 0.74597 0.95790 0.99166
 O32 O 0.74814 1.02977 1.02976
 O33 O 0.79464 1.03323 1.01906
 O34 O 0.79400 0.95706 0.99293
 O35 O 0.78981 1.00782 0.96800
 O36 O 0.79698 0.98123 1.04395
 Cu37 Cu 0.74163 0.99388 1.01075
 Cu38 Cu 0.79866 0.99524 1.00570
 C39 C 0.77467 0.97124 1.05702
 C40 C 0.76490 1.01527 0.95845
 C41 C 0.76989 0.94473 0.98709
 C42 C 0.77182 1.04431 1.02994
 O43 O 0.25583 0.46777 0.52164
 O44 O 0.27306 0.53751 0.48467
 O45 O 0.25427 0.52319 0.53557
 O46 O 0.27584 0.48168 0.47032
 O47 O 0.23124 0.48443 0.45249
 O48 O 0.20876 0.52361 0.51978
 O49 O 0.22790 0.53970 0.46815
 O50 O 0.21142 0.46868 0.50297
 Cu51 Cu 0.26929 0.50226 0.50463
 Cu52 Cu 0.21530 0.50447 0.48412
 C53 C 0.23088 0.45611 0.51829
 C54 C 0.25317 0.55081 0.47057
 C55 C 0.22789 0.53045 0.53889
 C56 C 0.25736 0.47564 0.45039
 O57 O 1.02807 0.23318 0.00005
 O58 O 0.97052 0.20657 -0.05031
 O59 O 1.02575 0.22307 -0.05658
 O60 O 0.97612 0.21436 0.00549
 O61 O 0.95821 0.25864 -0.00259
 O62 O 1.01378 0.26996 -0.05932
 O63 O 0.95853 0.25242 -0.05990
 O64 O 1.00995 0.27798 -0.00362
 Cu65 Cu 1.00175 0.21462 -0.02536
 Cu66 Cu 0.98338 0.26922 -0.03269
 C67 C 1.02763 0.26001 0.00801
 C68 C 0.95439 0.22505 -0.06351
 C69 C 1.02954 0.24851 -0.06724
 C70 C 0.95894 0.23503 0.01232
 O71 O 0.52043 0.75658 0.56276
 O72 O 0.47735 0.76779 0.49508
 O73 O 0.46558 0.75386 0.55000
 O74 O 0.53283 0.76988 0.50936
 O75 O 0.53782 0.72266 0.49919
 O76 O 0.46829 0.70734 0.53637
 O77 O 0.48414 0.72122 0.48318
 O78 O 0.52244 0.70903 0.55295
 Cu79 Cu 0.49840 0.76682 0.53021
 Cu80 Cu 0.50357 0.71032 0.51689
 C81 C 0.52824 0.73072 0.56956
 C82 C 0.47423 0.74652 0.47721
 C83 C 0.45554 0.72782 0.55019
 C84 C 0.54699 0.74899 0.49772
 O85 O 0.03895 0.74047 -0.00009
 O86 O -0.02213 0.72783 0.05065
 O87 O -0.01444 0.72371 -0.00598
 O88 O 0.03209 0.74465 0.05642
 O89 O 0.01845 0.79091 0.05154
 O90 O -0.03007 0.76932 -0.00964
 O91 O -0.03479 0.77453 0.04716
 O92 O 0.02442 0.78627 -0.00554
 Cu93 Cu 0.00995 0.72955 0.02585
 Cu94 Cu -0.00676 0.78491 0.02018
 C95 C 0.04187 0.76558 -0.01193
 C96 C -0.03853 0.74909 0.05788
 C97 C -0.03033 0.74279 -0.01853
 C98 C 0.03310 0.77129 0.06474
 O99 O 0.52277 0.28160 0.45480
 O100 O 0.46354 0.25991 0.50407
 O101 O 0.52050 0.25785 0.50711
 O102 O 0.46761 0.28368 0.45204
 O103 O 0.46646 0.23925 0.43237
 O104 O 0.51996 0.21382 0.48665
 O105 O 0.46269 0.21579 0.48385
 O106 O 0.52231 0.23718 0.43506
 Cu107 Cu 0.49368 0.27508 0.48195
 Cu108 Cu 0.49275 0.22189 0.45781
 C109 C 0.53202 0.26332 0.43599
 C110 C 0.45255 0.23436 0.50186
 C111 C 0.52978 0.23161 0.50576
 C112 C 0.45860 0.26599 0.43240
 O113 O 1.03016 0.06539 0.25099
 O114 O 0.98258 0.00692 0.27939
 O115 O 1.03890 0.01486 0.27489
 O116 O 0.97412 0.05781 0.25472
 O117 O 0.97305 0.03631 0.21131
 O118 O 1.03707 -0.00764 0.23195
 O119 O 0.98132 -0.01440 0.23598
 O120 O 1.02997 0.04341 0.20782
 Cu121 Cu 1.00638 0.03834 0.26937
 Cu122 Cu 1.00521 0.01246 0.21730
 C123 C 1.03891 0.06386 0.22469
 C124 C 0.97357 -0.01363 0.26268
 C125 C 1.04915 -0.00356 0.25675
 C126 C 0.96236 0.05424 0.22969
 O127 O 0.52515 0.51026 0.73858
 O128 O 0.46460 0.46485 0.71186
 O129 O 0.46806 0.51498 0.73709
 O130 O 0.52018 0.45730 0.71503
 O131 O 0.51835 0.43828 0.75954
 O132 O 0.46433 0.49347 0.78027
 O133 O 0.46253 0.44270 0.75492
 O134 O 0.52185 0.49002 0.78244
 Cu135 Cu 0.49527 0.48918 0.72137
 Cu136 Cu 0.49149 0.46437 0.77383
 C137 C 0.53403 0.50777 0.76485
 C138 C 0.45318 0.44607 0.72883
 C139 C 0.45613 0.51292 0.76208
 C140 C 0.52785 0.43780 0.73352
 O141 O 0.96642 0.99555 0.72771
 O142 O 1.02038 0.94196 0.75281
 O143 O 0.96384 0.94399 0.75255
 O144 O 1.02305 0.99357 0.73033
 O145 O 1.02187 1.01555 0.77355
 O146 O 0.96409 0.96454 0.79640
 O147 O 1.02198 0.96380 0.79607
 O148 O 0.96584 1.01630 0.77139
 Cu149 Cu 0.99320 0.96670 0.73648
 Cu150 Cu 0.99315 0.99182 0.78895
 C151 C 0.95688 1.01519 0.74497
 C152 C 1.03138 0.94453 0.77825
 C153 C 0.95374 0.94592 0.77833
 C154 C 1.03279 1.01273 0.74822
 O155 O 0.47573 0.53894 0.28048
 O156 O 0.53591 0.49045 0.25898
 O157 O 0.53264 0.54095 0.28568
 O158 O 0.47934 0.48884 0.25435
 O159 O 0.48155 0.51243 0.21212
 O160 O 0.53503 0.56437 0.24341
 O161 O 0.53930 0.51405 0.21685
 O162 O 0.47890 0.56247 0.23829
 Cu163 Cu 0.50577 0.51252 0.27413
 Cu164 Cu 0.50912 0.54039 0.22326
 C165 C 0.46665 0.55858 0.26288
 C166 C 0.54825 0.49438 0.23446
 C167 C 0.54307 0.56145 0.26995
 C168 C 0.47056 0.49248 0.22816
 O169 O 0.25229 0.21204 0.16517
 O170 O 0.28815 0.20194 0.20136
 O171 O 0.17863 0.23629 0.21777
 O172 O 0.17035 0.26913 0.25390
 O173 O 0.20055 0.28748 0.14315
 O174 O 0.23726 0.32389 0.13339
 O175 O 0.26273 0.31612 0.29171
 O176 O 0.22939 0.27649 0.30054
 O177 O 0.32949 0.29049 0.24496
 O178 O 0.33568 0.25850 0.19928
 O179 O 0.28470 0.36248 0.21508
 O180 O 0.23707 0.37037 0.19104
 O181 O 0.25385 0.35490 0.26146
 O182 O 0.21294 0.36502 0.22697
 O183 O 0.32204 0.33049 0.20857
 O184 O 0.32973 0.29265 0.17114
 O185 O 0.30024 0.27857 0.28324
 O186 O 0.26327 0.24227 0.29311
 O187 O 0.24234 0.24988 0.13411
 O188 O 0.27158 0.29365 0.12616
 O189 O 0.17074 0.28292 0.18262
 O190 O 0.16710 0.31027 0.22795
 O191 O 0.21578 0.20474 0.20805
 O192 O 0.25996 0.19689 0.23722
 Zr193 Zr 0.25317 0.23142 0.20694
 O194 O 0.28218 0.25601 0.23308
 Zr195 Zr 0.19895 0.27802 0.21881
 O196 O 0.22550 0.30465 0.24592
 Zr197 Zr 0.24265 0.28732 0.16147
 O198 O 0.27077 0.31469 0.18586
 Zr199 Zr 0.25845 0.27896 0.26484
 O200 O 0.22960 0.25155 0.24094
 Zr201 Zr 0.30195 0.28892 0.20779
 O202 O 0.27579 0.26170 0.18054
 Zr203 Zr 0.24768 0.33545 0.21978
 O204 O 0.21869 0.31080 0.19301
 O205 O 0.22114 0.25590 0.18601
 O206 O 0.27997 0.31117 0.24068
 C207 C 0.24677 0.22250 0.13960
 C208 C 0.18877 0.21048 0.21234
 C209 C 0.17533 0.28622 0.15504
 C210 C 0.26044 0.34375 0.28653
 C211 C 0.32495 0.28532 0.27227
 C212 C 0.31171 0.35655 0.21110
 H213 H 0.29670 0.24271 0.24196
 H214 H 0.27976 0.32899 0.17234
 H215 H 0.20803 0.24390 0.17354
 H216 H 0.21381 0.31426 0.26130
 H217 H 0.21467 0.26138 0.29539
 H218 H 0.17720 0.28063 0.27104
 H219 H 0.32160 0.30800 0.15815
 H220 H 0.28794 0.27988 0.12930
 H221 H 0.27743 0.22866 0.28419
 H222 H 0.24599 0.19990 0.25338
 H223 H 0.25001 0.36887 0.17385
 H224 H 0.22322 0.33713 0.14308
 H225 H 0.30261 0.21234 0.18915
 H226 H 0.33745 0.24526 0.21639
 H227 H 0.17098 0.32712 0.21481
 H228 H 0.20248 0.35861 0.24475
 O229 O 0.76416 0.84782 0.24710
 O230 O 0.73300 0.85639 0.28854
 O231 O 0.83875 0.80916 0.27929
 O232 O 0.85203 0.76984 0.30449
 O233 O 0.79152 0.76529 0.20583
 O234 O 0.74719 0.74234 0.20031
 O235 O 0.77161 0.72887 0.36057
 O236 O 0.80467 0.76694 0.36607
 O237 O 0.69247 0.76902 0.33522
 O238 O 0.67816 0.80265 0.30003
 O239 O 0.72085 0.69576 0.29332
 O240 O 0.75641 0.68646 0.25236
 O241 O 0.76510 0.69404 0.32528
 O242 O 0.79143 0.68498 0.27905
 O243 O 0.68638 0.73148 0.29357
 O244 O 0.67684 0.77725 0.26212
 O245 O 0.73162 0.76849 0.36595
 O246 O 0.77349 0.80232 0.37012
 O247 O 0.75730 0.81386 0.21094
 O248 O 0.71825 0.77617 0.20766
 O249 O 0.83139 0.76802 0.23556
 O250 O 0.84227 0.73359 0.27535
 O251 O 0.80515 0.84471 0.28814
 O252 O 0.76544 0.85452 0.32016
 Zr253 Zr 0.76487 0.82306 0.28598
 O254 O 0.74025 0.79802 0.31568
 Zr255 Zr 0.81390 0.77008 0.27831
 O256 O 0.79188 0.74315 0.30851
 Zr257 Zr 0.75629 0.77322 0.23379
 O258 O 0.73208 0.74520 0.26150
 Zr259 Zr 0.76792 0.76888 0.33804
 O260 O 0.79311 0.79602 0.31041
 Zr261 Zr 0.71076 0.77080 0.29302
 O262 O 0.73253 0.79920 0.26334
 Zr263 Zr 0.76013 0.71824 0.28618
 O264 O 0.78401 0.74327 0.25544
 O265 O 0.78768 0.79869 0.25499
 O266 O 0.73714 0.74233 0.31712
 C267 C 0.76145 0.84040 0.22003
 C268 C 0.83139 0.83583 0.28490
 C269 C 0.81906 0.76420 0.21043
 C270 C 0.76997 0.70204 0.35190
 C271 C 0.70410 0.76867 0.36093
 C272 C 0.69441 0.70450 0.29496
 H273 H 0.72987 0.81130 0.32919
 H274 H 0.71824 0.73354 0.24954
 H275 H 0.80010 0.81044 0.24176
 H276 H 0.80620 0.73069 0.31887
 H277 H 0.81959 0.78004 0.35750
 H278 H 0.84722 0.75965 0.32299
 H279 H 0.67709 0.76045 0.24833
 H280 H 0.70712 0.79329 0.21488
 H281 H 0.75648 0.81556 0.36939
 H282 H 0.77923 0.84713 0.33517
 H283 H 0.73722 0.68889 0.24278
 H284 H 0.75515 0.72338 0.20727
 H285 H 0.71762 0.85134 0.27407
 H286 H 0.68826 0.82161 0.30314
 H287 H 0.83384 0.72004 0.26056
 H288 H 0.80765 0.68830 0.29303
 O289 O 0.73977 0.13306 0.76169
 O290 O 0.70983 0.12792 0.71773
 O291 O 0.81171 0.18342 0.73419
 O292 O 0.82020 0.22692 0.71365
 O293 O 0.76486 0.20443 0.81254
 O294 O 0.72027 0.23274 0.82061
 O295 O 0.73122 0.26642 0.66445
 O296 O 0.77239 0.23552 0.65560
 O297 O 0.66215 0.21082 0.68328
 O298 O 0.65452 0.17137 0.72293
 O299 O 0.68315 0.28435 0.74049
 O300 O 0.71986 0.29285 0.77756
 O301 O 0.72179 0.29451 0.70463
 O302 O 0.75422 0.29996 0.75045
 O303 O 0.65416 0.24731 0.72387
 O304 O 0.64299 0.20531 0.75173
 O305 O 0.70022 0.22097 0.65325
 O306 O 0.74564 0.19665 0.64492
 O307 O 0.72968 0.16138 0.80146
 O308 O 0.69221 0.19654 0.81243
 O309 O 0.80233 0.21617 0.78221
 O310 O 0.80800 0.25785 0.74870
 O311 O 0.78118 0.14553 0.72270
 O312 O 0.74330 0.13567 0.68883
 Zr313 Zr 0.73913 0.16286 0.72621
 O314 O 0.71209 0.18892 0.69967
 Zr315 Zr 0.78339 0.21929 0.74023
 O316 O 0.75800 0.24787 0.71425
 Zr317 Zr 0.72805 0.20445 0.78469
 O318 O 0.70010 0.23251 0.76083
 Zr319 Zr 0.73625 0.22372 0.68155
 O320 O 0.76421 0.19554 0.70529
 Zr321 Zr 0.68066 0.20961 0.72574
 O322 O 0.70557 0.18042 0.75216
 Zr323 Zr 0.72475 0.26549 0.74037
 O324 O 0.75227 0.23954 0.76723
 O325 O 0.76048 0.18517 0.75966
 O326 O 0.70375 0.24348 0.70614
 C327 C 0.73544 0.13654 0.78935
 C328 C 0.80658 0.15670 0.72646
 C329 C 0.79184 0.20968 0.80743
 C330 C 0.72475 0.29092 0.67687
 C331 C 0.67333 0.21519 0.65787
 C332 C 0.65883 0.27432 0.73082
 H333 H 0.70325 0.17599 0.68462
 H334 H 0.68528 0.24091 0.77402
 H335 H 0.77359 0.17204 0.77084
 H336 H 0.77024 0.26339 0.70547
 H337 H 0.78852 0.22230 0.66136
 H338 H 0.81449 0.24119 0.69832
 H339 H 0.64935 0.20659 0.77242
 H340 H 0.68014 0.18129 0.80270
 H341 H 0.73279 0.17921 0.64572
 H342 H 0.75635 0.14613 0.67515
 H343 H 0.70612 0.28293 0.79093
 H344 H 0.73426 0.24923 0.81893
 H345 H 0.69403 0.12957 0.73229
 H346 H 0.66018 0.16080 0.70487
 H347 H 0.79876 0.26802 0.76542
 H348 H 0.76652 0.30344 0.73307
 O349 O 0.26194 0.80672 0.80384
 O350 O 0.28936 0.80877 0.75894
 O351 O 0.17679 0.78248 0.77009
 O352 O 0.15759 0.74493 0.74458
 O353 O 0.21302 0.74122 0.84662
 O354 O 0.24728 0.70040 0.85203
 O355 O 0.23174 0.68707 0.69380
 O356 O 0.20305 0.73125 0.68751
 O357 O 0.31445 0.71776 0.71916
 O358 O 0.33257 0.74926 0.75847
 O359 O 0.27293 0.64947 0.76798
 O360 O 0.23270 0.64941 0.80475
 O361 O 0.22878 0.65376 0.73087
 O362 O 0.20128 0.65031 0.77452
 O363 O 0.31242 0.67864 0.76056
 O364 O 0.33078 0.72023 0.79124
 O365 O 0.27590 0.71903 0.68778
 O366 O 0.24551 0.75740 0.68003
 O367 O 0.26211 0.77249 0.84030
 O368 O 0.28440 0.72666 0.84881
 O369 O 0.17539 0.74609 0.81425
 O370 O 0.15915 0.70965 0.77693
 O371 O 0.21666 0.81218 0.76962
 O372 O 0.25380 0.81353 0.73086
 Zr373 Zr 0.25184 0.78271 0.76553
 O374 O 0.27169 0.75256 0.73686
 Zr375 Zr 0.19398 0.73985 0.77270
 O376 O 0.21136 0.70770 0.74459
 Zr377 Zr 0.24936 0.73331 0.81937
 O378 O 0.26944 0.70133 0.79303
 Zr379 Zr 0.24012 0.72733 0.71492
 O380 O 0.21985 0.76044 0.74058
 Zr381 Zr 0.29559 0.72161 0.76111
 O382 O 0.27829 0.75369 0.78984
 Zr383 Zr 0.23742 0.67859 0.76895
 O384 O 0.21694 0.70863 0.79775
 O385 O 0.22477 0.76375 0.79633
 O386 O 0.26519 0.69668 0.73769
 C387 C 0.26559 0.79875 0.83064
 C388 C 0.18902 0.80789 0.77073
 C389 C 0.18615 0.74623 0.84031
 C390 C 0.22767 0.66096 0.70367
 C391 C 0.30320 0.71670 0.69329
 C392 C 0.30040 0.65349 0.76474
 H393 H 0.28385 0.76346 0.72272
 H394 H 0.28080 0.68810 0.80587
 H395 H 0.21646 0.77885 0.80943
 H396 H 0.19536 0.69743 0.73421
 H397 H 0.19347 0.74999 0.69279
 H398 H 0.16119 0.73294 0.72689
 H399 H 0.32673 0.70455 0.80569
 H400 H 0.30180 0.73510 0.83930
 H401 H 0.23907 0.77669 0.68746
 H402 H 0.23489 0.81274 0.72041
 H403 H 0.25031 0.65117 0.81719
 H404 H 0.22925 0.68902 0.84828
 H405 H 0.30479 0.80045 0.77167
 H406 H 0.32844 0.76450 0.74356
 H407 H 0.16393 0.69668 0.79370
 H408 H 0.18472 0.65904 0.76372
 O409 O 0.22908 0.30010 0.67014
 O410 O 0.20097 0.31065 0.71270
 O411 O 0.31212 0.27892 0.70713
 O412 O 0.33241 0.24516 0.73435
 O413 O 0.27200 0.22207 0.63916
 O414 O 0.23381 0.18739 0.63962
 O415 O 0.25783 0.20251 0.79918
 O416 O 0.28573 0.24509 0.79775
 O417 O 0.17410 0.22732 0.77007
 O418 O 0.15434 0.25043 0.72919
 O419 O 0.21334 0.15113 0.73310
 O420 O 0.25145 0.14141 0.70041
 O421 O 0.25573 0.16216 0.76974
 O422 O 0.28616 0.15220 0.72427
 O423 O 0.17420 0.18142 0.73461
 O424 O 0.15698 0.21954 0.69761
 O425 O 0.21288 0.23832 0.79930
 O426 O 0.24977 0.27549 0.79819
 O427 O 0.22759 0.26058 0.63955
 O428 O 0.19877 0.21563 0.64186
 O429 O 0.31097 0.23303 0.66814
 O430 O 0.32660 0.20448 0.71230
 O431 O 0.27336 0.30981 0.70461
 O432 O 0.23631 0.31800 0.74138
 Zr433 Zr 0.23730 0.28228 0.71167
 O434 O 0.21694 0.25842 0.74519
 Zr435 Zr 0.29360 0.23686 0.71062
 O436 O 0.27623 0.21179 0.74510
 Zr437 Zr 0.23626 0.22452 0.66748
 O438 O 0.21701 0.19770 0.69960
 Zr439 Zr 0.24871 0.23763 0.77098
 O440 O 0.26944 0.26392 0.73908
 Zr441 Zr 0.19191 0.22375 0.72779
 O442 O 0.20892 0.25049 0.69372
 Zr443 Zr 0.24889 0.17927 0.72725
 O444 O 0.26841 0.20271 0.69234
 O445 O 0.26318 0.25744 0.68392
 O446 O 0.22232 0.20350 0.75525
 C447 C 0.22602 0.28835 0.64472
 C448 C 0.30079 0.30458 0.70462
 C449 C 0.29936 0.22602 0.64338
 C450 C 0.25969 0.17474 0.79471
 C451 C 0.18556 0.23441 0.79485
 C452 C 0.18593 0.15580 0.73470
 H453 H 0.20485 0.27211 0.75669
 H454 H 0.20533 0.18252 0.68939
 H455 H 0.27258 0.26935 0.66847
 H456 H 0.29227 0.20344 0.75695
 H457 H 0.29844 0.25889 0.78696
 H458 H 0.32890 0.23911 0.75484
 H459 H 0.16000 0.20125 0.68627
 H460 H 0.18377 0.22995 0.64790
 H461 H 0.23333 0.28831 0.79257
 H462 H 0.25355 0.31595 0.75433
 H463 H 0.23696 0.14376 0.68448
 H464 H 0.24912 0.17365 0.64633
 H465 H 0.18513 0.30056 0.70184
 H466 H 0.16077 0.27046 0.73465
 H467 H 0.32119 0.18896 0.69802
 H468 H 0.29989 0.15804 0.74002
 O469 O 0.74362 0.65920 0.72606
 O470 O 0.78528 0.64901 0.75656
 O471 O 0.67622 0.67363 0.78825
 O472 O 0.66761 0.70344 0.82605
 O473 O 0.68869 0.73415 0.71627
 O474 O 0.72268 0.77316 0.70773
 O475 O 0.75845 0.75106 0.86262
 O476 O 0.73041 0.70727 0.86886
 O477 O 0.82589 0.73008 0.80647
 O478 O 0.82949 0.70891 0.75750
 O479 O 0.77458 0.80491 0.79410
 O480 O 0.72648 0.81361 0.76908
 O481 O 0.74389 0.79127 0.83693
 O482 O 0.70258 0.80267 0.80444
 O483 O 0.81248 0.77709 0.77851
 O484 O 0.81807 0.74458 0.73430
 O485 O 0.79942 0.71937 0.84715
 O486 O 0.76618 0.67777 0.85558
 O487 O 0.73160 0.70025 0.70018
 O488 O 0.75775 0.74633 0.69497
 O489 O 0.66266 0.71953 0.75597
 O490 O 0.66068 0.74581 0.80348
 O491 O 0.71456 0.64480 0.77546
 O492 O 0.76252 0.63752 0.79407
 Zr493 Zr 0.74921 0.67456 0.76951
 O494 O 0.77854 0.69835 0.79605
 Zr495 Zr 0.69359 0.71628 0.79009
 O496 O 0.72047 0.74157 0.81799
 Zr497 Zr 0.73203 0.73432 0.73133
 O498 O 0.76051 0.76079 0.75636
 Zr499 Zr 0.75634 0.71664 0.83187
 O500 O 0.72746 0.68998 0.80710
 Zr501 Zr 0.79456 0.73478 0.77288
 O502 O 0.76785 0.70889 0.74493
 Zr503 Zr 0.73875 0.77615 0.79372
 O504 O 0.70915 0.75279 0.76661
 O505 O 0.71433 0.69883 0.75378
 O506 O 0.77406 0.75225 0.80957
 C507 C 0.73645 0.67250 0.70218
 C508 C 0.68787 0.64862 0.78272
 C509 C 0.66477 0.72693 0.72885
 C510 C 0.75264 0.77859 0.86051
 C511 C 0.82346 0.72433 0.83393
 C512 C 0.80148 0.80136 0.78766
 H513 H 0.79438 0.68511 0.80235
 H514 H 0.76785 0.77714 0.74422
 H515 H 0.70097 0.68664 0.74176
 H516 H 0.70917 0.74876 0.83491
 H517 H 0.71600 0.69229 0.86258
 H518 H 0.67570 0.71301 0.84380
 H519 H 0.81004 0.76287 0.72583
 H520 H 0.77528 0.73375 0.69565
 H521 H 0.78273 0.66791 0.84597
 H522 H 0.75322 0.63932 0.81351
 H523 H 0.74068 0.81618 0.75308
 H524 H 0.71025 0.78529 0.72058
 H525 H 0.79581 0.66063 0.74165
 H526 H 0.82920 0.69015 0.76844
 H527 H 0.66087 0.76250 0.78957
 H528 H 0.69210 0.79291 0.82062
 O529 O 0.25199 0.70918 0.32268
 O530 O 0.21255 0.70006 0.29089
 O531 O 0.32218 0.72263 0.26117
 O532 O 0.33112 0.75309 0.22361
 O533 O 0.31269 0.78023 0.33499
 O534 O 0.28073 0.82056 0.34545
 O535 O 0.24047 0.80569 0.19056
 O536 O 0.26882 0.76190 0.18201
 O537 O 0.17526 0.78787 0.24515
 O538 O 0.17060 0.76181 0.29322
 O539 O 0.22999 0.85858 0.26521
 O540 O 0.27922 0.86373 0.28462
 O541 O 0.25553 0.84515 0.21740
 O542 O 0.30082 0.85245 0.24806
 O543 O 0.19044 0.83071 0.27632
 O544 O 0.18301 0.79651 0.31819
 O545 O 0.20013 0.77338 0.20471
 O546 O 0.22819 0.73334 0.19519
 O547 O 0.26785 0.74774 0.35036
 O548 O 0.24432 0.79482 0.35746
 O549 O 0.33772 0.76806 0.29388
 O550 O 0.33990 0.79460 0.24674
 O551 O 0.28383 0.69547 0.27717
 O552 O 0.23495 0.69033 0.25311
 Zr553 Zr 0.24926 0.72567 0.27983
 O554 O 0.22062 0.75141 0.25465
 Zr555 Zr 0.30619 0.76596 0.26027
 O556 O 0.28004 0.79337 0.23375
 Zr557 Zr 0.26921 0.78310 0.32043
 O558 O 0.24171 0.81150 0.29670
 Zr559 Zr 0.24318 0.77008 0.21951
 O560 O 0.27134 0.74125 0.24252
 Zr561 Zr 0.20638 0.78754 0.27935
 O562 O 0.23221 0.75965 0.30598
 Zr563 Zr 0.26354 0.82774 0.25963
 O564 O 0.29234 0.80210 0.28548
 O565 O 0.28514 0.74812 0.29628
 O566 O 0.22722 0.80560 0.24329
 C567 C 0.26017 0.72069 0.34711
 C568 C 0.31052 0.69827 0.26936
 C569 C 0.33631 0.77379 0.32148
 C570 C 0.24571 0.83325 0.19371
 C571 C 0.17681 0.78153 0.21770
 C572 C 0.20289 0.85543 0.27112
 H573 H 0.20436 0.73896 0.24758
 H574 H 0.23533 0.82749 0.30985
 H575 H 0.29793 0.73544 0.30832
 H576 H 0.29118 0.80079 0.21682
 H577 H 0.28115 0.74470 0.18668
 H578 H 0.32264 0.76282 0.20619
 H579 H 0.19278 0.81310 0.32830
 H580 H 0.22621 0.78305 0.35640
 H581 H 0.24093 0.71667 0.20039
 H582 H 0.25009 0.68682 0.23820
 H583 H 0.26852 0.86385 0.30338
 H584 H 0.29495 0.83177 0.33366
 H585 H 0.20040 0.71253 0.30370
 H586 H 0.16788 0.74566 0.27890
 H587 H 0.33995 0.81150 0.26043
 H588 H 0.30826 0.84466 0.22930
 O589 O 0.75964 0.33715 0.28153
 O590 O 0.79798 0.34460 0.24756
 O591 O 0.68578 0.32467 0.22345
 O592 O 0.67283 0.29379 0.18771
 O593 O 0.70008 0.26735 0.29737
 O594 O 0.73033 0.22566 0.30488
 O595 O 0.75956 0.24047 0.14804
 O596 O 0.73248 0.28528 0.14154
 O597 O 0.82921 0.25520 0.19895
 O598 O 0.83838 0.28295 0.24603
 O599 O 0.77635 0.18790 0.21773
 O600 O 0.72912 0.18261 0.24474
 O601 O 0.74470 0.20159 0.17555
 O602 O 0.70361 0.19418 0.21006
 O603 O 0.81610 0.21442 0.23156
 O604 O 0.82704 0.24924 0.27247
 O605 O 0.80206 0.26978 0.15979
 O606 O 0.77076 0.31371 0.15203
 O607 O 0.75015 0.29688 0.30963
 O608 O 0.76807 0.24820 0.31495
 O609 O 0.67207 0.28127 0.25848
 O610 O 0.66540 0.25284 0.21230
 O611 O 0.72619 0.35179 0.23393
 O612 O 0.77269 0.35592 0.21148
 Zr613 Zr 0.75970 0.32044 0.23832
 O614 O 0.78600 0.29422 0.21114
 Zr615 Zr 0.70066 0.28114 0.22258
 O616 O 0.72418 0.25349 0.19404
 Zr617 Zr 0.74188 0.26278 0.27961
 O618 O 0.76699 0.23398 0.25409
 Zr619 Zr 0.76037 0.27608 0.17739
 O620 O 0.73462 0.30498 0.20266
 Zr621 Zr 0.80110 0.25776 0.23493
 O622 O 0.77789 0.28587 0.26310
 Zr623 Zr 0.74203 0.21859 0.21840
 O624 O 0.71571 0.24450 0.24628
 O625 O 0.72480 0.29869 0.25719
 O626 O 0.77726 0.24037 0.20014
 C627 C 0.75697 0.32408 0.30638
 C628 C 0.69895 0.34922 0.22782
 C629 C 0.67580 0.27515 0.28575
 C630 C 0.75336 0.21312 0.15141
 C631 C 0.82567 0.26016 0.17145
 C632 C 0.80364 0.19041 0.22359
 H633 H 0.80224 0.30605 0.20336
 H634 H 0.77424 0.21776 0.26652
 H635 H 0.71361 0.31218 0.26988
 H636 H 0.71153 0.24637 0.17792
 H637 H 0.71950 0.30138 0.14791
 H638 H 0.67953 0.28358 0.16984
 H639 H 0.81902 0.23165 0.28230
 H640 H 0.78721 0.25790 0.31273
 H641 H 0.78902 0.32230 0.15978
 H642 H 0.76189 0.35377 0.19275
 H643 H 0.74348 0.18055 0.26083
 H644 H 0.71636 0.21414 0.29289
 H645 H 0.81038 0.33170 0.25981
 H646 H 0.84126 0.29790 0.23058
 H647 H 0.66562 0.23675 0.22690
 H648 H 0.69331 0.20362 0.19347
 C649 C 0.24987 0.11404 0.07138
 C650 C 0.22963 0.13237 0.05872
 C651 C 0.21231 0.12384 0.03508
 C652 C 0.21642 0.09545 0.02372
 C653 C 0.23784 0.07650 0.03582
 C654 C 0.25463 0.08595 0.06016
 O655 O 0.26359 0.12608 0.09407
 C656 C 0.25191 0.15267 0.09567
 C657 C 0.23124 0.15778 0.07437
 C658 C 0.21657 0.18439 0.07189
 C659 C 0.22305 0.20637 0.09262
 C660 C 0.24347 0.20114 0.11547
 C661 C 0.25832 0.17396 0.11672
 H662 H 0.19637 0.13855 0.02561
 H663 H 0.20359 0.08861 0.00490
 H664 H 0.27111 0.07200 0.06987
 H665 H 0.20046 0.18797 0.05487
 H666 H 0.21132 0.22696 0.09158
 H667 H 0.27396 0.16931 0.13393
 C668 C 0.74026 0.58070 0.61202
 C669 C 0.71868 0.60032 0.60478
 C670 C 0.70140 0.59735 0.57986
 C671 C 0.70675 0.57331 0.56141
 C672 C 0.72937 0.55309 0.56790
 C673 C 0.74628 0.55684 0.59372
 O674 O 0.75398 0.58751 0.63686
 C675 C 0.74088 0.61207 0.64534
 C676 C 0.71931 0.62093 0.62630
 C677 C 0.70332 0.64646 0.63037
 C678 C 0.70971 0.66354 0.65520
 C679 C 0.73147 0.65467 0.67556
 C680 C 0.74723 0.62846 0.67055
 H681 H 0.68450 0.61307 0.57470
 H682 H 0.69373 0.57089 0.54168
 H683 H 0.76367 0.54180 0.59929
 H684 H 0.68658 0.65305 0.61496
 H685 H 0.69725 0.68337 0.65890
 H686 H 0.76401 0.62123 0.68563
 C687 C 0.76043 0.92211 0.12051
 C688 C 0.78647 0.92460 0.13522
 C689 C 0.80908 0.94235 0.12555
 C690 C 0.80485 0.95802 0.09942
 C691 C 0.77798 0.95643 0.08386
 C692 C 0.75527 0.93844 0.09504
 O693 O 0.74255 0.90253 0.13251
 C694 C 0.75762 0.89261 0.15542
 C695 C 0.78450 0.90577 0.15817
 C696 C 0.80395 0.89901 0.18054
 C697 C 0.79540 0.87780 0.20099
 C698 C 0.76814 0.86335 0.19839
 C699 C 0.74894 0.87070 0.17518
 H700 H 0.82955 0.94354 0.13734
 H701 H 0.82257 0.97147 0.09144
 H702 H 0.73471 0.93605 0.08357
 H703 H 0.82495 0.90968 0.18221
 H704 H 0.81030 0.87210 0.21858
 H705 H 0.72806 0.85991 0.17276
 C706 C 0.23288 0.39239 0.57078
 C707 C 0.21398 0.37305 0.55731
 C708 C 0.19941 0.37986 0.53135
 C709 C 0.20468 0.40760 0.51883
 C710 C 0.22461 0.42754 0.53210
 C711 C 0.23888 0.41970 0.55844
 O712 O 0.24392 0.38223 0.59565
 C713 C 0.23190 0.35584 0.59791
 C714 C 0.21360 0.34890 0.57495
 C715 C 0.19925 0.32191 0.57298
 C716 C 0.20384 0.30147 0.59573
 C717 C 0.22197 0.30871 0.61996
 C718 C 0.23624 0.33625 0.62083
 H719 H 0.18445 0.36446 0.52120
 H720 H 0.19369 0.41335 0.49857
 H721 H 0.25398 0.43456 0.56921
 H722 H 0.18508 0.31678 0.55463
 H723 H 0.19286 0.28039 0.59485
 H724 H 0.25048 0.34225 0.63887
 C725 C 0.74320 0.06241 0.89388
 C726 C 0.75900 0.04934 0.87191
 C727 C 0.77688 0.02520 0.87681
 C728 C 0.77860 0.01413 0.90551
 C729 C 0.76216 0.02692 0.92842
 C730 C 0.74397 0.05124 0.92243
 O731 O 0.72924 0.08639 0.88506
 C732 C 0.73628 0.08842 0.85692
 C733 C 0.75419 0.06612 0.84770
 C734 C 0.76486 0.06448 0.81927
 C735 C 0.75718 0.08700 0.79967
 C736 C 0.73955 0.11086 0.80889
 C737 C 0.72865 0.11123 0.83791
 H738 H 0.78952 0.01560 0.85930
 H739 H 0.79264 -0.00445 0.90992
 H740 H 0.73167 0.06177 0.93967
 H741 H 0.77910 0.04682 0.81258
 H742 H 0.76605 0.08649 0.77773
 H743 H 0.71541 0.12921 0.84577
 C744 C 0.24861 0.61728 0.42151
 C745 C 0.27012 0.63477 0.43341
 C746 C 0.28722 0.62584 0.45704
 C747 C 0.28176 0.59788 0.46894
 C748 C 0.25932 0.57972 0.45731
 C749 C 0.24251 0.58971 0.43327
 O750 O 0.23575 0.62915 0.39831
 C751 C 0.24933 0.65473 0.39552
 C752 C 0.27038 0.65944 0.41656
 C753 C 0.28746 0.68477 0.41728
 C754 C 0.28299 0.70576 0.39508
 C755 C 0.26206 0.70080 0.37259
 C756 C 0.24476 0.67505 0.37319
 H757 H 0.30426 0.63978 0.46585
 H758 H 0.29473 0.59056 0.48743
 H759 H 0.22547 0.57623 0.42371
 H760 H 0.30396 0.68801 0.43400
 H761 H 0.29660 0.72521 0.39473
 H762 H 0.22869 0.67056 0.35631
 C763 C 0.26309 0.90051 0.90810
 C764 C 0.28914 0.88639 0.91249
 C765 C 0.30969 0.89603 0.93285
 C766 C 0.30307 0.92120 0.94941
 C767 C 0.27593 0.93579 0.94584
 C768 C 0.25576 0.92505 0.92471
 O769 O 0.24666 0.88812 0.88750
 C770 C 0.26258 0.86552 0.87880
 C771 C 0.28868 0.86326 0.89357
 C772 C 0.30812 0.84038 0.88870
 C773 C 0.30027 0.81901 0.86781
 C774 C 0.27377 0.82138 0.85200
 C775 C 0.25474 0.84499 0.85746
 H776 H 0.33013 0.88463 0.93585
 H777 H 0.31891 0.92889 0.96535
 H778 H 0.23495 0.93555 0.92101
 H779 H 0.32836 0.83880 0.90083
 H780 H 0.31477 0.80074 0.86377
 H781 H 0.23414 0.84685 0.84599
 C782 C 0.75624 0.41059 0.40132
 C783 C 0.77649 0.38937 0.40791
 C784 C 0.79247 0.38932 0.43391
 C785 C 0.78718 0.41197 0.45410
 C786 C 0.76581 0.43364 0.44823
 C787 C 0.75023 0.43298 0.42134
 O788 O 0.74342 0.40654 0.37543
 C789 C 0.75568 0.38208 0.36556
 C790 C 0.77585 0.37057 0.38478
 C791 C 0.79024 0.34426 0.37965
 C792 C 0.78354 0.32915 0.35365
 C793 C 0.76327 0.34080 0.33324
 C794 C 0.74928 0.36778 0.33912
 H795 H 0.80830 0.37237 0.43856
 H796 H 0.79914 0.41214 0.47464
 H797 H 0.73384 0.44928 0.41624
 H798 H 0.80572 0.33546 0.39528
 H799 H 0.79429 0.30846 0.34924
 H800 H 0.73342 0.37685 0.32401
 C801 C 0.09073 0.26709 0.06095
 C802 C 0.08043 0.28891 0.07904
 C803 C 0.05384 0.30263 0.07451
 C804 C 0.03705 0.29337 0.05045
 C805 C 0.04680 0.27039 0.03187
 C806 C 0.07408 0.25707 0.03722
 O807 O 0.11668 0.25717 0.06907
 C808 C 0.12275 0.27293 0.09289
 C809 C 0.10111 0.29244 0.10008
 C810 C 0.10234 0.31021 0.12491
 C811 C 0.12694 0.30778 0.14309
 C812 C 0.14980 0.28835 0.13575
 C813 C 0.14775 0.27076 0.11022
 H814 H 0.04625 0.31979 0.08902
 H815 H 0.01610 0.30357 0.04675
 H816 H 0.08206 0.23953 0.02337
 H817 H 0.08485 0.32511 0.13029
 H818 H 0.12840 0.32122 0.16267
 H819 H 0.16476 0.25541 0.10450
 C820 C 0.58251 0.73750 0.63125
 C821 C 0.57252 0.71601 0.64991
 C822 C 0.54858 0.69840 0.64334
 C823 C 0.53432 0.70320 0.61646
 C824 C 0.54381 0.72570 0.59728
 C825 C 0.56814 0.74320 0.60484
 O826 O 0.60659 0.75058 0.64084
 C827 C 0.61182 0.73720 0.66618
 C828 C 0.59143 0.71613 0.67291
 C829 C 0.59281 0.69934 0.69834
 C830 C 0.61642 0.70417 0.71739
 C831 C 0.63834 0.72503 0.71043
 C832 C 0.63577 0.74196 0.68452
 H833 H 0.54139 0.68133 0.65817
 H834 H 0.51569 0.68971 0.61072
 H835 H 0.57601 0.76020 0.59026
 H836 H 0.57652 0.68285 0.70314
 H837 H 0.61818 0.69085 0.73699
 H838 H 0.65220 0.75792 0.67853
 C839 C 0.10372 0.75262 0.93733
 C840 C 0.10566 0.77980 0.92437
 C841 C 0.08785 0.80318 0.93199
 C842 C 0.06697 0.79838 0.95378
 C843 C 0.06403 0.77040 0.96744
 C844 C 0.08310 0.74730 0.95912
 O845 O 0.12200 0.73309 0.92601
 C846 C 0.13570 0.74829 0.90536
 C847 C 0.12639 0.77699 0.90349
 C848 C 0.13651 0.79648 0.88242
 C849 C 0.15683 0.78591 0.86224
 C850 C 0.16679 0.75648 0.86364
 C851 C 0.15637 0.73740 0.88569
 H852 H 0.08969 0.82431 0.92125
 H853 H 0.05281 0.81644 0.95956
 H854 H 0.08156 0.72558 0.96871
 H855 H 0.12853 0.81881 0.88112
 H856 H 0.16457 0.80049 0.84518
 H857 H 0.16322 0.71466 0.88671
 C858 C 0.59197 0.26237 0.38032
 C859 C 0.58819 0.28959 0.36773
 C860 C 0.56785 0.30976 0.37772
 C861 C 0.55032 0.30131 0.40135
 C862 C 0.55307 0.27294 0.41391
 C863 C 0.57433 0.25327 0.40336
 O864 O 0.61283 0.24672 0.36783
 C865 C 0.62224 0.26434 0.34673
 C866 C 0.60760 0.29067 0.34549
 C867 C 0.61322 0.31195 0.32439
 C868 C 0.63511 0.30598 0.30397
 C869 C 0.65113 0.27943 0.30547
 C870 C 0.64459 0.25830 0.32713
 H871 H 0.56539 0.33111 0.36754
 H872 H 0.53386 0.31638 0.40910
 H873 H 0.57679 0.23148 0.41259
 H874 H 0.60123 0.33238 0.32369
 H875 H 0.64027 0.32236 0.28759
 H876 H 0.65654 0.23786 0.32862
 C877 C 0.90908 0.76068 0.12013
 C878 C 0.89188 0.73606 0.11726
 C879 C 0.89676 0.71457 0.09609
 C880 C 0.92027 0.71872 0.07697
 C881 C 0.93776 0.74434 0.07894
 C882 C 0.93205 0.76562 0.10084
 O883 O 0.90118 0.77803 0.14216
 C884 C 0.87831 0.76419 0.15331
 C885 C 0.87154 0.73858 0.13861
 C886 C 0.84782 0.72112 0.14588
 C887 C 0.83044 0.73036 0.16931
 C888 C 0.83738 0.75621 0.18532
 C889 C 0.86176 0.77335 0.17731
 H890 H 0.88304 0.69528 0.09440
 H891 H 0.92446 0.70238 0.06023
 H892 H 0.94527 0.78525 0.10293
 H893 H 0.84276 0.70122 0.13383
 H894 H 0.81183 0.71710 0.17539
 H895 H 0.86733 0.79329 0.18908
 C896 C 0.39664 0.23433 0.56194
 C897 C 0.37741 0.21366 0.55128
 C898 C 0.38201 0.19829 0.52536
 C899 C 0.40737 0.20469 0.50962
 C900 C 0.42718 0.22646 0.51979
 C901 C 0.42173 0.24138 0.54643
 O902 O 0.38829 0.24626 0.58708
 C903 C 0.36315 0.23295 0.59231
 C904 C 0.35540 0.21299 0.57095
 C905 C 0.32949 0.19722 0.57161
 C906 C 0.31089 0.20210 0.59539
 C907 C 0.31870 0.22211 0.61804
 C908 C 0.34526 0.23775 0.61641
 H909 H 0.36658 0.18207 0.51746
 H910 H 0.41116 0.19327 0.48915
 H911 H 0.43649 0.25804 0.55476
 H912 H 0.32376 0.18181 0.55441
 H913 H 0.29067 0.18991 0.59642
 H914 H 0.35165 0.25337 0.63321
 C915 C 0.89116 0.22577 0.88562
 C916 C 0.88209 0.19704 0.88772
 C917 C 0.89709 0.17615 0.90408
 C918 C 0.92212 0.18540 0.91937
 C919 C 0.93120 0.21534 0.91874
 C920 C 0.91542 0.23565 0.90123
 O921 O 0.87466 0.24187 0.86792
 C922 C 0.85452 0.22297 0.85885
 C923 C 0.85778 0.19532 0.87065
 C924 C 0.83872 0.17230 0.86441
 C925 C 0.81575 0.17789 0.84476
 C926 C 0.81280 0.20587 0.83144
 C927 C 0.83233 0.22876 0.83871
 H928 H 0.88979 0.15354 0.90505
 H929 H 0.93373 0.16938 0.93249
 H930 H 0.92172 0.25856 0.89977
 H931 H 0.84162 0.15076 0.87404
 H932 H 0.80104 0.16016 0.83888
 H933 H 0.83062 0.25020 0.82853
 C934 C 0.41941 0.76802 0.41922
 C935 C 0.43203 0.75568 0.39485
 C936 C 0.45835 0.74077 0.39594
 C937 C 0.47214 0.73826 0.42331
 C938 C 0.45975 0.75099 0.44873
 C939 C 0.43318 0.76646 0.44661
 O940 O 0.39332 0.77929 0.41370
 C941 C 0.38947 0.77399 0.38526
 C942 C 0.41265 0.75982 0.37270
 C943 C 0.41289 0.75117 0.34347
 C944 C 0.38805 0.75701 0.32651
 C945 C 0.36341 0.77094 0.33901
 C946 C 0.36440 0.77985 0.36884
 H947 H 0.46758 0.73080 0.37655
 H948 H 0.49245 0.72633 0.42480
 H949 H 0.42301 0.77579 0.46583
 H950 H 0.43131 0.73978 0.33419
 H951 H 0.38774 0.74974 0.30389
 H952 H 0.34595 0.79021 0.37922
 C953 C 0.09102 0.12820 0.22195
 C954 C 0.10741 0.12045 0.19805
 C955 C 0.10129 0.09591 0.18087
 C956 C 0.07764 0.07823 0.18898
 C957 C 0.06096 0.08505 0.21418
 C958 C 0.06758 0.11073 0.23062
 O959 O 0.10091 0.15209 0.23561
 C960 C 0.12422 0.15941 0.22014
 C961 C 0.12925 0.14055 0.19710
 C962 C 0.15332 0.14299 0.17901
 C963 C 0.17297 0.16589 0.18480
 C964 C 0.16806 0.18605 0.20804
 C965 C 0.14316 0.18288 0.22586
 H966 H 0.11459 0.09027 0.16219
 H967 H 0.07309 0.05860 0.17629
 H968 H 0.05543 0.11647 0.25007
 H969 H 0.15700 0.12764 0.16127
 H970 H 0.19182 0.16825 0.17083
 H971 H 0.13904 0.19782 0.24386
 C972 C 0.58979 0.56810 0.77076
 C973 C 0.61017 0.55496 0.78862
 C974 C 0.60613 0.52719 0.80074
 C975 C 0.58021 0.51224 0.79380
 C976 C 0.55943 0.52498 0.77456
 C977 C 0.56426 0.55339 0.76307
 O978 O 0.59762 0.59464 0.76172
 C979 C 0.62363 0.59826 0.77391
 C980 C 0.63253 0.57450 0.79030
 C981 C 0.65969 0.57324 0.80389
 C982 C 0.67827 0.59759 0.80063
 C983 C 0.66907 0.62261 0.78461
 C984 C 0.64138 0.62292 0.77107
 H985 H 0.62241 0.51731 0.81482
 H986 H 0.57681 0.49036 0.80250
 H987 H 0.54874 0.56360 0.74833
 H988 H 0.66639 0.55417 0.81636
 H989 H 0.69949 0.59728 0.81105
 H990 H 0.63407 0.64167 0.75843
 C991 C 0.90452 0.07725 0.74240
 C992 C 0.89422 0.07425 0.71420
 C993 C 0.90403 0.05271 0.69511
 C994 C 0.92537 0.03333 0.70548
 C995 C 0.93625 0.03550 0.73472
 C996 C 0.92563 0.05809 0.75331
 O997 O 0.89144 0.09855 0.75726
 C998 C 0.87235 0.10910 0.73802
 C999 C 0.87317 0.09487 0.71136
 C1000 C 0.85383 0.10088 0.68864
 C1001 C 0.83246 0.12214 0.69374
 C1002 C 0.83117 0.13711 0.72097
 C1003 C 0.85165 0.13087 0.74332
 H1004 H 0.89535 0.05068 0.67308
 H1005 H 0.93300 0.01638 0.69073
 H1006 H 0.93317 0.06052 0.77574
 H1007 H 0.85460 0.08902 0.66807
 H1008 H 0.81655 0.12664 0.67672
 H1009 H 0.85048 0.14147 0.76456
 C1010 C 0.40898 0.61745 0.26144
 C1011 C 0.38971 0.60639 0.28159
 C1012 C 0.39495 0.58074 0.29731
 C1013 C 0.42094 0.56566 0.29173
 C1014 C 0.44083 0.57620 0.27046
 C1015 C 0.43475 0.60264 0.25528
 O1016 O 0.40003 0.64231 0.24915
 C1017 C 0.37448 0.64694 0.26169
 C1018 C 0.36705 0.62548 0.28153
 C1019 C 0.34102 0.62576 0.29684
 C1020 C 0.32203 0.64934 0.29179
 C1021 C 0.32949 0.67221 0.27196
 C1022 C 0.35611 0.67079 0.25660
 H1023 H 0.37949 0.57252 0.31314
 H1024 H 0.42514 0.54537 0.30338
 H1025 H 0.44947 0.61127 0.23895
 H1026 H 0.33561 0.60857 0.31229
 H1027 H 0.30193 0.65020 0.30401
 H1028 H 0.36247 0.68786 0.24137
 C1029 C 0.08774 0.88489 0.77535
 C1030 C 0.10916 0.89696 0.79280
 C1031 C 0.10530 0.92302 0.80832
 C1032 C 0.07858 0.93762 0.80502
 C1033 C 0.05671 0.92626 0.78604
 C1034 C 0.06126 0.89921 0.77145
 O1035 O 0.09575 0.86012 0.76234
 C1036 C 0.12292 0.85658 0.77154
 C1037 C 0.13233 0.87867 0.78996
 C1038 C 0.16054 0.87987 0.80110
 C1039 C 0.17960 0.85708 0.79337
 C1040 C 0.17003 0.83353 0.77525
 C1041 C 0.14128 0.83344 0.76410
 H1042 H 0.12246 0.93211 0.82194
 H1043 H 0.07555 0.95851 0.81600
 H1044 H 0.04508 0.89012 0.75664
 H1045 H 0.16759 0.89763 0.81529
 H1046 H 0.20146 0.85723 0.80232
 H1047 H 0.13339 0.81577 0.75021
 C1048 C 0.60273 0.43265 0.23275
 C1049 C 0.62532 0.44599 0.21821
 C1050 C 0.62336 0.47434 0.20693
 C1051 C 0.59724 0.48968 0.21124
 C1052 C 0.57406 0.47674 0.22713
 C1053 C 0.57686 0.44772 0.23784
 O1054 O 0.60878 0.40548 0.24136
 C1055 C 0.63586 0.40164 0.23229
 C1056 C 0.64717 0.42586 0.21832
 C1057 C 0.67562 0.42684 0.20806
 C1058 C 0.69295 0.40172 0.21211
 C1059 C 0.68138 0.37619 0.22560
 C1060 C 0.65242 0.37626 0.23584
 H1061 H 0.64135 0.48436 0.19544
 H1062 H 0.59545 0.51199 0.20317
 H1063 H 0.55953 0.43730 0.25004
 H1064 H 0.68417 0.44624 0.19739
 H1065 H 0.71506 0.40184 0.20408
 H1066 H 0.64309 0.35714 0.24634
 C1067 C 0.92429 0.92155 0.26653
 C1068 C 0.91440 0.92435 0.29477
 C1069 C 0.92391 0.94640 0.31366
 C1070 C 0.94431 0.96663 0.30296
 C1071 C 0.95455 0.96481 0.27361
 C1072 C 0.94444 0.94155 0.25532
 O1073 O 0.91181 0.89951 0.25196
 C1074 C 0.89350 0.88826 0.27140
 C1075 C 0.89419 0.90281 0.29790
 C1076 C 0.87562 0.89599 0.32084
 C1077 C 0.85532 0.87340 0.31623
 C1078 C 0.85431 0.85791 0.28925
 C1079 C 0.87386 0.86518 0.26657
 H1080 H 0.91565 0.94818 0.33576
 H1081 H 0.95156 0.98407 0.31748
 H1082 H 0.95151 0.93932 0.23281
 H1083 H 0.87625 0.90809 0.34129
 H1084 H 0.84019 0.86805 0.33355
 H1085 H 0.87295 0.85409 0.24555
 C1086 C 0.39834 0.38510 0.72040
 C1087 C 0.37950 0.39745 0.70037
 C1088 C 0.38407 0.42505 0.68814
 C1089 C 0.40898 0.44060 0.69710
 C1090 C 0.42828 0.42860 0.71832
 C1091 C 0.42289 0.40038 0.73001
 O1092 O 0.39000 0.35872 0.72943
 C1093 C 0.36526 0.35441 0.71497
 C1094 C 0.35769 0.37754 0.69708
 C1095 C 0.33183 0.37818 0.68110
 C1096 C 0.31301 0.35398 0.68375
 C1097 C 0.32067 0.32970 0.70167
 C1098 C 0.34727 0.32991 0.71732
 H1099 H 0.36895 0.43434 0.67243
 H1100 H 0.41281 0.46229 0.68813
 H1101 H 0.43729 0.39068 0.74618
 H1102 H 0.32615 0.39679 0.66747
 H1103 H 0.29262 0.35405 0.67177
 H1104 H 0.35339 0.31188 0.73157
 C1105 C 0.08675 0.23703 0.87504
 C1106 C 0.10403 0.26122 0.88029
 C1107 C 0.09707 0.28277 0.90070
 C1108 C 0.07145 0.27899 0.91677
 C1109 C 0.05389 0.25364 0.91268
 C1110 C 0.06157 0.23240 0.89140
 O1111 O 0.09704 0.21964 0.85410
 C1112 C 0.12148 0.23302 0.84621
 C1113 C 0.12691 0.25831 0.86194
 C1114 C 0.15171 0.27531 0.85810
 C1115 C 0.17154 0.26618 0.83677
 C1116 C 0.16594 0.24088 0.81938
 C1117 C 0.14056 0.22396 0.82423
 H1118 H 0.11095 0.30171 0.90425
 H1119 H 0.06591 0.29516 0.93327
 H1120 H 0.04852 0.21284 0.88796
 H1121 H 0.15559 0.29495 0.87098
 H1122 H 0.19074 0.27945 0.83302
 H1123 H 0.13581 0.20457 0.81124
 C1124 C 0.60631 0.75036 0.44084
 C1125 C 0.62589 0.76913 0.45409
 C1126 C 0.62092 0.78199 0.48131
 C1127 C 0.59467 0.77529 0.49542
 C1128 C 0.57442 0.75552 0.48252
 C1129 C 0.58044 0.74272 0.45490
 O1130 O 0.61467 0.74157 0.41439
 C1131 C 0.64015 0.75495 0.41095
 C1132 C 0.64813 0.77181 0.43477
 C1133 C 0.67414 0.78743 0.43603
 C1134 C 0.69265 0.78569 0.41173
 C1135 C 0.68464 0.76908 0.38658
 C1136 C 0.65795 0.75348 0.38622
 H1137 H 0.63650 0.79696 0.49114
 H1138 H 0.59019 0.78523 0.51651
 H1139 H 0.56509 0.72792 0.44440
 H1140 H 0.67999 0.80046 0.45506
 H1141 H 0.71295 0.79781 0.41222
 H1142 H 0.65139 0.74047 0.36739
 C1143 C 0.91346 0.74421 0.92245
 C1144 C 0.91750 0.71683 0.91035
 C1145 C 0.93801 0.69710 0.92092
 C1146 C 0.95514 0.70591 0.94493
 C1147 C 0.95199 0.73436 0.95761
 C1148 C 0.93080 0.75381 0.94586
 O1149 O 0.89163 0.75890 0.91015
 C1150 C 0.88182 0.74042 0.88976
 C1151 C 0.89713 0.71448 0.88878
 C1152 C 0.89036 0.69184 0.86933
 C1153 C 0.86659 0.69597 0.85035
 C1154 C 0.85008 0.72215 0.85152
 C1155 C 0.85781 0.74477 0.87137
 H1156 H 0.94048 0.67550 0.91128
 H1157 H 0.97109 0.69055 0.95335
 H1158 H 0.92733 0.77547 0.95506
 H1159 H 0.90269 0.67161 0.86905
 H1160 H 0.86044 0.67848 0.83538
 H1161 H 0.84515 0.76477 0.87283
 C1162 C 0.40355 0.26786 0.37120
 C1163 C 0.40870 0.29540 0.35986
 C1164 C 0.42856 0.31493 0.37232
 C1165 C 0.44409 0.30545 0.39717
 C1166 C 0.43984 0.27675 0.40855
 C1167 C 0.41912 0.25780 0.39545
 O1168 O 0.38336 0.25294 0.35654
 C1169 C 0.37575 0.27135 0.33533
 C1170 C 0.39084 0.29751 0.33613
 C1171 C 0.38664 0.31966 0.31552
 C1172 C 0.36571 0.31477 0.29348
 C1173 C 0.34933 0.28835 0.29288
 C1174 C 0.35447 0.26633 0.31404
 H1175 H 0.43211 0.33657 0.36315
 H1176 H 0.46013 0.32002 0.40691
 H1177 H 0.41544 0.23581 0.40376
 H1178 H 0.39881 0.34004 0.31652
 H1179 H 0.36136 0.33194 0.27768
 H1180 H 0.34203 0.24608 0.31409
 C1181 C 0.09246 0.77080 0.12195
 C1182 C 0.08273 0.79227 0.14076
 C1183 C 0.05760 0.80841 0.13536
 C1184 C 0.04176 0.80193 0.10969
 C1185 C 0.05098 0.77928 0.09046
 C1186 C 0.07675 0.76358 0.09672
 O1187 O 0.11718 0.75854 0.13064
 C1188 C 0.12310 0.77239 0.15559
 C1189 C 0.10258 0.79302 0.16298
 C1190 C 0.10432 0.80955 0.18865
 C1191 C 0.12838 0.80485 0.20720
 C1192 C 0.15031 0.78439 0.19950
 C1193 C 0.14741 0.76783 0.17334
 H1194 H 0.05045 0.82535 0.15034
 H1195 H 0.02196 0.81399 0.10516
 H1196 H 0.08438 0.74633 0.08232
 H1197 H 0.08780 0.82549 0.19417
 H1198 H 0.13027 0.81762 0.22714
 H1199 H 0.16366 0.75192 0.16692
 C1200 C 0.57976 0.22613 0.57139
 C1201 C 0.59987 0.20644 0.56094
 C1202 C 0.59751 0.19326 0.53351
 C1203 C 0.57359 0.20094 0.51595
 C1204 C 0.55307 0.22195 0.52579
 C1205 C 0.55614 0.23459 0.55402
 O1206 O 0.58617 0.23614 0.59804
 C1207 C 0.61101 0.22271 0.60439
 C1208 C 0.62046 0.20456 0.58225
 C1209 C 0.64679 0.18969 0.58347
 C1210 C 0.66412 0.19371 0.60856
 C1211 C 0.65457 0.21178 0.63194
 C1212 C 0.62749 0.22625 0.62998
 H1213 H 0.61363 0.17782 0.52581
 H1214 H 0.57158 0.19129 0.49431
 H1215 H 0.54080 0.25069 0.56205
 H1216 H 0.65395 0.17589 0.56557
 H1217 H 0.68485 0.18252 0.60997
 H1218 H 0.61987 0.24031 0.64743
 C1219 C 0.90228 0.24901 0.07019
 C1220 C 0.91046 0.22863 0.09088
 C1221 C 0.93304 0.20890 0.08663
 C1222 C 0.94816 0.21054 0.06010
 C1223 C 0.94075 0.23194 0.03866
 C1224 C 0.91725 0.25129 0.04376
 O1225 O 0.88010 0.26557 0.07862
 C1226 C 0.87433 0.25550 0.10529
 C1227 C 0.89247 0.23306 0.11386
 C1228 C 0.89080 0.21971 0.14118
 C1229 C 0.86929 0.22967 0.16038
 C1230 C 0.84983 0.25237 0.15187
 C1231 C 0.85246 0.26547 0.12387
 H1232 H 0.93900 0.19301 0.10326
 H1233 H 0.96619 0.19569 0.05667
 H1234 H 0.91108 0.26785 0.02787
 H1235 H 0.90541 0.20215 0.14743
 H1236 H 0.86727 0.21907 0.18153
 H1237 H 0.83789 0.28275 0.11675
 C1238 C 0.39962 0.72698 0.61045
 C1239 C 0.37941 0.70787 0.59877
 C1240 C 0.38284 0.69451 0.57152
 C1241 C 0.40819 0.70104 0.55572
 C1242 C 0.42902 0.72119 0.56699
 C1243 C 0.42456 0.73441 0.59473
 O1244 O 0.39251 0.73680 0.63691
 C1245 C 0.36715 0.72378 0.64198
 C1246 C 0.35803 0.70609 0.61919
 C1247 C 0.33153 0.69132 0.61936
 C1248 C 0.31364 0.69506 0.64392
 C1249 C 0.32277 0.71265 0.66801
 C1250 C 0.35006 0.72706 0.66705
 H1251 H 0.36672 0.67940 0.56286
 H1252 H 0.41144 0.69076 0.53455
 H1253 H 0.44033 0.74957 0.60401
 H1254 H 0.32464 0.67781 0.60102
 H1255 H 0.29270 0.68421 0.64424
 H1256 H 0.35735 0.74107 0.68487
 C1257 C 0.26519 0.08293 0.88411
 C1258 C 0.28676 0.10315 0.88989
 C1259 C 0.30461 0.10164 0.91457
 C1260 C 0.29969 0.07861 0.93439
 C1261 C 0.27688 0.05809 0.92949
 C1262 C 0.25965 0.06013 0.90373
 O1263 O 0.25025 0.08875 0.85979
 C1264 C 0.26249 0.11334 0.85014
 C1265 C 0.28475 0.12319 0.86795
 C1266 C 0.29930 0.14953 0.86312
 C1267 C 0.29057 0.16639 0.83892
 C1268 C 0.26808 0.15645 0.81991
 C1269 C 0.25399 0.12939 0.82545
 H1270 H 0.32135 0.11791 0.91869
 H1271 H 0.31285 0.07750 0.95413
 H1272 H 0.24197 0.04492 0.89948
 H1273 H 0.31639 0.15708 0.87774
 H1274 H 0.30146 0.18711 0.83481
 H1275 H 0.23642 0.12160 0.81153
 C1276 C 0.76405 0.59418 0.42135
 C1277 C 0.78590 0.61161 0.43262
 C1278 C 0.80219 0.60384 0.45717
 C1279 C 0.79537 0.57719 0.47099
 C1280 C 0.77226 0.55925 0.46044
 C1281 C 0.75657 0.56781 0.43505
 O1282 O 0.75113 0.60577 0.39795
 C1283 C 0.76498 0.63118 0.39455
 C1284 C 0.78623 0.63591 0.41540
 C1285 C 0.80237 0.66174 0.41695
 C1286 C 0.79644 0.68357 0.39608
 C1287 C 0.77507 0.67899 0.37395
 C1288 C 0.75925 0.65229 0.37309
 H1289 H 0.81927 0.61796 0.46561
 H1290 H 0.80741 0.57108 0.49053
 H1291 H 0.73877 0.55464 0.42654
 H1292 H 0.81871 0.66511 0.43382
 H1293 H 0.80877 0.70387 0.39685
 H1294 H 0.74266 0.64835 0.35659
 C1295 C 0.75409 0.11060 0.07405
 C1296 C 0.77753 0.12814 0.06744
 C1297 C 0.79958 0.11926 0.04879
 C1298 C 0.79748 0.09108 0.03648
 C1299 C 0.77312 0.07261 0.04223
 C1300 C 0.75088 0.08291 0.06108
 O1301 O 0.73694 0.12224 0.09432
 C1302 C 0.74978 0.14775 0.10044
 C1303 C 0.77445 0.15257 0.08423
 C1304 C 0.79165 0.17755 0.08745
 C1305 C 0.78333 0.19825 0.10858
 C1306 C 0.75864 0.19328 0.12645
 C1307 C 0.74148 0.16773 0.12212
 H1308 H 0.81814 0.13323 0.04445
 H1309 H 0.81480 0.08385 0.02221
 H1310 H 0.73235 0.06931 0.06662
 H1311 H 0.81109 0.18073 0.07455
 H1312 H 0.79694 0.21744 0.11202
 H1313 H 0.72277 0.16321 0.13571
 C1314 C 0.23214 0.58418 0.60138
 C1315 C 0.20695 0.57777 0.61622
 C1316 C 0.18706 0.55680 0.60627
 C1317 C 0.19360 0.54171 0.58015
 C1318 C 0.21992 0.54741 0.56513
 C1319 C 0.23933 0.56904 0.57591
 O1320 O 0.24788 0.60521 0.61395
 C1321 C 0.23245 0.61216 0.63740
 C1322 C 0.20736 0.59584 0.64008
 C1323 C 0.18853 0.59912 0.66367
 C1324 C 0.19579 0.62021 0.68512
 C1325 C 0.22110 0.63778 0.68217
 C1326 C 0.23966 0.63361 0.65803
 H1327 H 0.16726 0.55224 0.61815
 H1328 H 0.17863 0.52513 0.57205
 H1329 H 0.25944 0.57402 0.56469
 H1330 H 0.16903 0.58589 0.66554
 H1331 H 0.18145 0.62337 0.70362
 H1332 H 0.25927 0.64651 0.65557
 C1333 C 0.75260 0.87919 0.93976
 C1334 C 0.77284 0.85937 0.94999
 C1335 C 0.79223 0.86597 0.97258
 C1336 C 0.79082 0.89419 0.98495
 C1337 C 0.76995 0.91484 0.97490
 C1338 C 0.75032 0.90707 0.95225
 O1339 O 0.73777 0.86945 0.91668
 C1340 C 0.74880 0.84291 0.91229
 C1341 C 0.77013 0.83552 0.93221
 C1342 C 0.78527 0.80910 0.93092
 C1343 C 0.77839 0.78970 0.90791
 C1344 C 0.75710 0.79730 0.88657
 C1345 C 0.74189 0.82416 0.88912
 H1346 H 0.80833 0.85024 0.97990
 H1347 H 0.80600 0.90006 1.00225
 H1348 H 0.73468 0.92270 0.94374
 H1349 H 0.80216 0.80389 0.94669
 H1350 H 0.79046 0.76937 0.90603
 H1351 H 0.72570 0.83069 0.87307
 C1352 C 0.25523 0.43195 0.37970
 C1353 C 0.28154 0.41776 0.38149
 C1354 C 0.30135 0.42264 0.40411
 C1355 C 0.29358 0.44270 0.42606
 C1356 C 0.26621 0.45712 0.42528
 C1357 C 0.24693 0.45186 0.40145
 O1358 O 0.23922 0.42335 0.35687
 C1359 C 0.25572 0.40314 0.34413
 C1360 C 0.28176 0.39880 0.35852
 C1361 C 0.30155 0.37733 0.35026
 C1362 C 0.29413 0.35947 0.32628
 C1363 C 0.26760 0.36369 0.31088
 C1364 C 0.24824 0.38608 0.31966
 H1365 H 0.32184 0.41103 0.40512
 H1366 H 0.30857 0.44624 0.44413
 H1367 H 0.22580 0.46224 0.40030
 H1368 H 0.32166 0.37401 0.36223
 H1369 H 0.30901 0.34229 0.31967
 H1370 H 0.22762 0.38929 0.30855
 C1371 C 0.24726 0.92344 0.10216
 C1372 C 0.22235 0.90697 0.09893
 C1373 C 0.20268 0.91120 0.07604
 C1374 C 0.20914 0.93308 0.05538
 C1375 C 0.23511 0.94990 0.05770
 C1376 C 0.25427 0.94511 0.08170
 O1377 O 0.26329 0.91549 0.12516
 C1378 C 0.24824 0.89336 0.13658
 C1379 C 0.22312 0.88718 0.12118
 C1380 C 0.20482 0.86395 0.12830
 C1381 C 0.21276 0.84630 0.15221
 C1382 C 0.23837 0.85236 0.16869
 C1383 C 0.25623 0.87647 0.16093
 H1384 H 0.18326 0.89787 0.07394
 H1385 H 0.19431 0.93628 0.03713
 H1386 H 0.27431 0.95744 0.08407
 H1387 H 0.18534 0.85933 0.11567
 H1388 H 0.19880 0.82803 0.15809
 H1389 H 0.27603 0.88136 0.17295
 C1390 C 0.73353 0.38495 0.59016
 C1391 C 0.70688 0.38707 0.60351
 C1392 C 0.68699 0.40912 0.59678
 C1393 C 0.69507 0.43002 0.57564
 C1394 C 0.72284 0.42886 0.56235
 C1395 C 0.74223 0.40585 0.56962
 O1396 O 0.74919 0.36234 0.59959
 C1397 C 0.73219 0.35002 0.61954
 C1398 C 0.70617 0.36450 0.62301
 C1399 C 0.68574 0.35624 0.64384
 C1400 C 0.69243 0.33208 0.66175
 C1401 C 0.71879 0.31643 0.65809
 C1402 C 0.73888 0.32540 0.63655
 H1403 H 0.66612 0.41030 0.60754
 H1404 H 0.68012 0.44761 0.57032
 H1405 H 0.76353 0.40439 0.55974
 H1406 H 0.66560 0.36818 0.64647
 H1407 H 0.67696 0.32530 0.67826
 H1408 H 0.75930 0.31399 0.63365
 C1409 C 0.08798 0.07416 0.74621
 C1410 C 0.10855 0.06171 0.72836
 C1411 C 0.10494 0.03440 0.71511
 C1412 C 0.07918 0.01900 0.72088
 C1413 C 0.05803 0.03083 0.74005
 C1414 C 0.06244 0.05893 0.75275
 O1415 O 0.09560 0.10058 0.75614
 C1416 C 0.12169 0.10475 0.74447
 C1417 C 0.13066 0.08140 0.72760
 C1418 C 0.15754 0.08050 0.71400
 C1419 C 0.17586 0.10485 0.71759
 C1420 C 0.16690 0.12970 0.73411
 C1421 C 0.13935 0.12963 0.74780
 H1422 H 0.12144 0.02519 0.70101
 H1423 H 0.07617 -0.00258 0.71123
 H1424 H 0.04663 0.06848 0.76744
 H1425 H 0.16415 0.06176 0.70103
 H1426 H 0.19672 0.10471 0.70669
 H1427 H 0.13198 0.14826 0.76054
 C1428 C 0.59590 0.62478 0.27834
 C1429 C 0.61072 0.61635 0.30322
 C1430 C 0.60368 0.59112 0.31889
 C1431 C 0.58064 0.57369 0.30832
 C1432 C 0.56546 0.58147 0.28226
 C1433 C 0.57313 0.60763 0.26728
 O1434 O 0.60654 0.64907 0.26626
 C1435 C 0.62869 0.65601 0.28377
 C1436 C 0.63230 0.63656 0.30662
 C1437 C 0.65527 0.63856 0.32650
 C1438 C 0.67546 0.66137 0.32253
 C1439 C 0.67206 0.68181 0.29933
 C1440 C 0.64814 0.67934 0.27988
 H1441 H 0.61578 0.58484 0.33833
 H1442 H 0.57523 0.55371 0.31998
 H1443 H 0.56213 0.61414 0.24726
 H1444 H 0.65793 0.62275 0.34403
 H1445 H 0.69379 0.66317 0.33744
 H1446 H 0.64547 0.69435 0.26165
 C1447 C 0.10570 0.93687 0.25993
 C1448 C 0.12752 0.95092 0.27530
 C1449 C 0.12459 0.97936 0.28615
 C1450 C 0.09821 0.99394 0.28069
 C1451 C 0.07579 0.98014 0.26413
 C1452 C 0.07965 0.95117 0.25367
 O1453 O 0.11252 0.90966 0.25212
 C1454 C 0.13929 0.90652 0.26260
 C1455 C 0.14966 0.93121 0.27668
 C1456 C 0.17758 0.93284 0.28854
 C1457 C 0.19540 0.90791 0.28595
 C1458 C 0.18476 0.88197 0.27230
 C1459 C 0.15632 0.88135 0.26045
 H1460 H 0.14196 0.98993 0.29835
 H1461 H 0.09552 1.01621 0.28865
 H1462 H 0.06283 0.94009 0.24111
 H1463 H 0.18539 0.95258 0.29931
 H1464 H 0.21716 0.90853 0.29513
 H1465 H 0.14782 0.86193 0.24968
 C1466 C 0.58257 0.37658 0.73782
 C1467 C 0.57877 0.36374 0.71073
 C1468 C 0.56024 0.37528 0.68943
 C1469 C 0.54454 0.40076 0.69658
 C1470 C 0.54723 0.41363 0.72481
 C1471 C 0.56676 0.40148 0.74557
 O1472 O 0.60150 0.36247 0.75476
 C1473 C 0.60965 0.34003 0.73814
 C1474 C 0.59611 0.33957 0.71113
 C1475 C 0.60079 0.31744 0.69064
 C1476 C 0.62053 0.29516 0.69816
 C1477 C 0.63545 0.29570 0.72545
 C1478 C 0.62990 0.31848 0.74575
 H1479 H 0.55774 0.36489 0.66819
 H1480 H 0.52946 0.40974 0.68064
 H1481 H 0.56922 0.41088 0.76728
 H1482 H 0.58979 0.31741 0.66959
 H1483 H 0.62515 0.27816 0.68228
 H1484 H 0.64115 0.31947 0.76666
 C1485 C 0.90231 0.11042 0.23180
 C1486 C 0.88372 0.09959 0.21061
 C1487 C 0.89006 0.07464 0.19417
 C1488 C 0.91644 0.06017 0.20005
 C1489 C 0.93562 0.07063 0.22229
 C1490 C 0.92837 0.09623 0.23824
 O1491 O 0.89263 0.13464 0.24459
 C1492 C 0.86732 0.13918 0.23133
 C1493 C 0.86065 0.11829 0.21049
 C1494 C 0.83494 0.11892 0.19420
 C1495 C 0.81556 0.14222 0.19939
 C1496 C 0.82242 0.16438 0.22030
 C1497 C 0.84864 0.16258 0.23656
 H1498 H 0.87522 0.06657 0.17748
 H1499 H 0.92161 0.04051 0.18775
 H1500 H 0.94257 0.10488 0.25522
 H1501 H 0.83011 0.10226 0.17791
 H1502 H 0.79574 0.14351 0.18651
 H1503 H 0.85452 0.17913 0.25265
 C1504 C 0.39964 0.57322 0.75941
 C1505 C 0.38002 0.56250 0.77940
 C1506 C 0.38492 0.53716 0.79566
 C1507 C 0.41086 0.52188 0.79071
 C1508 C 0.43107 0.53178 0.76943
 C1509 C 0.42542 0.55805 0.75374
 O1510 O 0.39084 0.59792 0.74662
 C1511 C 0.36503 0.60271 0.75868
 C1512 C 0.35730 0.58145 0.77861
 C1513 C 0.33087 0.58158 0.79322
 C1514 C 0.31176 0.60487 0.78743
 C1515 C 0.31957 0.62768 0.76774
 C1516 C 0.34659 0.62645 0.75303
 H1517 H 0.36919 0.52926 0.81137
 H1518 H 0.41464 0.50171 0.80272
 H1519 H 0.44034 0.56613 0.73731
 H1520 H 0.32522 0.56446 0.80864
 H1521 H 0.29130 0.60565 0.79904
 H1522 H 0.35309 0.64350 0.73785
 C1523 C 0.89811 0.88474 0.77857
 C1524 C 0.88065 0.89357 0.80131
 C1525 C 0.88650 0.91849 0.81807
 C1526 C 0.91119 0.93517 0.81087
 C1527 C 0.92916 0.92692 0.78704
 C1528 C 0.92251 0.90118 0.77081
 O1529 O 0.88877 0.86039 0.76544
 C1530 C 0.86479 0.85378 0.78010
 C1531 C 0.85872 0.87351 0.80212
 C1532 C 0.83416 0.87125 0.81961
 C1533 C 0.81515 0.84763 0.81426
 C1534 C 0.82118 0.82668 0.79199
 C1535 C 0.84647 0.82984 0.77475
 H1536 H 0.87247 0.92498 0.83590
 H1537 H 0.91585 0.95489 0.82338
 H1538 H 0.93578 0.89428 0.75252
 H1539 H 0.82973 0.88714 0.83669
 H1540 H 0.79601 0.84536 0.82781
 H1541 H 0.85155 0.81433 0.75750
 C1542 C 0.41431 0.43234 0.22068
 C1543 C 0.39448 0.44592 0.20253
 C1544 C 0.39946 0.47341 0.19018
 C1545 C 0.42562 0.48777 0.19736
 C1546 C 0.44584 0.47481 0.21710
 C1547 C 0.44018 0.44649 0.22861
 O1548 O 0.40534 0.40628 0.23018
 C1549 C 0.37916 0.40350 0.21803
 C1550 C 0.37131 0.42732 0.20122
 C1551 C 0.34409 0.42973 0.18794
 C1552 C 0.32428 0.40653 0.19196
 C1553 C 0.33222 0.38135 0.20844
 C1554 C 0.36015 0.37981 0.22153
 H1555 H 0.38355 0.48367 0.17593
 H1556 H 0.42947 0.50959 0.18870
 H1557 H 0.45508 0.43616 0.24390
 H1558 H 0.33820 0.44891 0.17521
 H1559 H 0.30299 0.40787 0.18176
 H1560 H 0.36671 0.36094 0.23434
   
