data_POSCAR
  _audit_creation_date              2014-09-24
  _audit_creation_method            'ToBaCCo'
  _symmetry_space_group_name_H-M    'P1'
  _symmetry_Int_Tables_number       1
  _symmetry_cell_setting            triclinic
  loop_
  _symmetry_equiv_pos_as_xyz
 x,y,z
_cell_length_a 59.5107
_cell_length_b 59.6761
_cell_length_c 59.4601
_cell_angle_alpha 90.015200
_cell_angle_beta 90.064800
_cell_angle_gamma 90.134500
loop_
  _atom_site_label
  _atom_site_type_symbol
  _atom_site_fract_x
  _atom_site_fract_y
  _atom_site_fract_z
C1 C 0.18837 0.20942 0.22142
 N2 N 0.19180 0.22351 0.20380
 C3 C 0.20923 0.22026 0.18943
 N4 N 0.22332 0.20270 0.19284
 C5 C 0.22013 0.18846 0.21038
 N6 N 0.20262 0.19194 0.22459
 C7 C 0.68874 0.70952 0.72067
 N8 N 0.69204 0.72352 0.70296
 C9 C 0.70953 0.72037 0.68864
 N10 N 0.72377 0.70295 0.69217
 C11 C 0.72068 0.68878 0.70979
 N12 N 0.70314 0.69220 0.72398
 C13 C 0.31113 0.79010 0.72198
 N14 N 0.29684 0.80753 0.72519
 C15 C 0.27915 0.81094 0.71110
 N16 N 0.27593 0.79656 0.69364
 C17 C 0.29011 0.77909 0.69013
 N18 N 0.30769 0.77597 0.70438
 C19 C 0.81102 0.28817 0.22225
 N20 N 0.79613 0.30502 0.22596
 C21 C 0.77869 0.30864 0.21166
 N22 N 0.77610 0.29507 0.19348
 C23 C 0.79071 0.27806 0.18955
 N24 N 0.80813 0.27477 0.20396
 C25 C 0.80857 0.71121 0.27755
 N26 N 0.80542 0.72495 0.29548
 C27 C 0.78804 0.72154 0.30989
 N28 N 0.77376 0.70411 0.30624
 C29 C 0.77662 0.69025 0.28834
 N30 N 0.79405 0.69396 0.27406
 C31 C 0.31143 0.20883 -0.22100
 N32 N 0.30782 0.22289 -0.20337
 C33 C 0.29006 0.21982 -0.18938
 N34 N 0.27580 0.20240 -0.19310
 C35 C 0.27912 0.18805 -0.21053
 N36 N 0.29698 0.19146 -0.22439
 C37 C 0.68883 0.29146 -0.22070
 N38 N 0.69272 0.27698 -0.20352
 C39 C 0.71060 0.27989 -0.18960
 N40 N 0.72469 0.29750 -0.19305
 C41 C 0.72106 0.31223 -0.21012
 N42 N 0.70303 0.30904 -0.22384
 C43 C 0.18851 0.79089 0.27904
 N44 N 0.20274 0.80844 0.27585
 C45 C 0.22066 0.81176 0.28969
 N46 N 0.22414 0.79720 0.30694
 C47 C 0.21001 0.77963 0.31044
 N48 N 0.19225 0.77657 0.29639
 C49 C 0.46142 0.44127 0.47262
 N50 N 0.44386 0.45543 0.47580
 C51 C 0.44070 0.47329 0.46198
 N52 N 0.45535 0.47691 0.44485
 C53 C 0.47299 0.46291 0.44144
 N54 N 0.47590 0.44513 0.45540
 C55 C -0.04090 -0.06215 0.96978
 N56 N -0.02648 -0.05849 0.95246
 C57 C -0.02928 -0.04069 0.93851
 N58 N -0.04670 -0.02646 0.94206
 C59 C -0.06136 -0.02986 0.95926
 N60 N -0.05830 -0.04781 0.97302
 C61 C 1.04061 0.56120 0.97125
 N62 N 1.02676 0.55790 0.95334
 C63 C 1.02981 0.54032 0.93917
 N64 N 1.04705 0.52593 0.94296
 C65 C 1.06112 0.52896 0.96072
 N66 N 1.05775 0.54658 0.97480
 C67 C 0.54070 0.06147 0.47104
 N68 N 0.55822 0.04725 0.47424
 C69 C 0.56139 0.02936 0.46041
 N70 N 0.54671 0.02591 0.44320
 C71 C 0.52918 0.04002 0.43970
 N72 N 0.52627 0.05774 0.45372
 C73 C -0.04156 0.06086 0.53031
 N74 N -0.05915 0.04666 0.52708
 C75 C -0.06233 0.02865 0.54074
 N76 N -0.04757 0.02503 0.55784
 C77 C -0.02995 0.03912 0.56138
 N78 N -0.02706 0.05698 0.54752
 C79 C 0.46059 0.55954 0.02783
 N80 N 0.47490 0.55591 0.04527
 C81 C 0.47250 0.53763 0.05867
 N82 N 0.45547 0.52297 0.05458
 C83 C 0.44085 0.52651 0.03738
 N84 N 0.44358 0.54480 0.02404
 C85 C 0.53959 -0.05855 0.02835
 N86 N 0.55749 -0.04463 0.02552
 C87 C 0.56113 -0.02716 0.03973
 N88 N 0.54668 -0.02369 0.05705
 C89 C 0.52873 -0.03743 0.06020
 N90 N 0.52530 -0.05476 0.04577
 C91 C 1.04058 0.43863 0.52912
 N92 N 1.02673 0.44198 0.54698
 C93 C 1.02987 0.45960 0.56112
 N94 N 1.04719 0.47397 0.55733
 C95 C 1.06124 0.47090 0.53962
 N96 N 1.05780 0.45325 0.52559
 C97 C 0.40679 0.01143 0.21803
 H98 H 0.40549 0.02771 0.22594
 C99 C 0.42153 0.00832 0.20007
 H100 H 0.43120 0.02247 0.19401
 C101 C 0.39545 -0.02660 0.21632
 H102 H 0.38569 -0.04031 0.22306
 C103 C 0.41014 -0.03052 0.19844
 H104 H 0.41142 -0.04728 0.19160
 N105 N 0.39381 -0.00579 0.22550
 C106 C 0.34243 0.03218 0.26110
 H107 H 0.34354 0.02436 0.27747
 C108 C 0.32768 0.05000 0.25768
 H109 H 0.31782 0.05604 0.27171
 C110 C 0.35425 0.03381 0.22311
 H111 H 0.36423 0.02709 0.20954
 C112 C 0.33954 0.05152 0.21887
 H113 H 0.33845 0.05825 0.20201
 Zn114 Zn 0.37459 0.00006 0.25016
 N115 N 0.35560 0.02470 0.24403
 C116 C 0.39484 0.02696 0.28424
 N117 N 0.39335 0.00609 0.27516
 C118 C 0.40623 -0.01102 0.28293
 C119 C 0.42086 -0.00769 0.30098
 C120 C 0.40945 0.03112 0.30219
 C121 C 0.34319 -0.03297 0.23872
 C122 C 0.32853 -0.05093 0.24209
 C123 C 0.33861 -0.05080 0.28145
 C124 C 0.35340 -0.03309 0.27722
 N125 N 0.35559 -0.02472 0.25607
 H126 H 0.38507 0.04055 0.27732
 H127 H 0.40498 -0.02737 0.27515
 H128 H 0.43050 -0.02173 0.30723
 H129 H 0.41069 0.04795 0.30887
 H130 H 0.34488 -0.02567 0.22215
 H131 H 0.31945 -0.05764 0.22781
 H132 H 0.33678 -0.05680 0.29852
 H133 H 0.36274 -0.02573 0.29097
 C134 C 0.32605 0.05994 0.23632
 C135 C 0.42335 -0.01289 0.18997
 C136 C 0.32599 -0.06011 0.26373
 C137 C 0.42268 0.01364 0.31086
 C138 C 0.09440 -0.01224 0.71680
 H139 H 0.09611 -0.02870 0.72421
 C140 C 0.07964 -0.00898 0.69886
 H141 H 0.07037 -0.02318 0.69230
 C142 C 0.10466 0.02613 0.71639
 H143 H 0.11398 0.03990 0.72367
 C144 C 0.08993 0.03020 0.69856
 H145 H 0.08818 0.04713 0.69228
 N146 N 0.10682 0.00511 0.72494
 C147 C 0.15699 -0.03385 0.76117
 H148 H 0.15509 -0.02671 0.77778
 C149 C 0.17160 -0.05178 0.75783
 H150 H 0.18044 -0.05862 0.77218
 C151 C 0.14730 -0.03362 0.72253
 H152 H 0.13818 -0.02614 0.70873
 C153 C 0.16207 -0.05130 0.71834
 H154 H 0.16410 -0.05717 0.70124
 Zn155 Zn 0.12584 -0.00082 0.74976
 N156 N 0.14486 -0.02546 0.74373
 C157 C 0.10472 -0.02790 0.78310
 N158 N 0.10685 -0.00687 0.77455
 C159 C 0.09442 0.01041 0.78266
 C160 C 0.07969 0.00708 0.80060
 C161 C 0.09002 -0.03204 0.80093
 C162 C 0.15696 0.03241 0.73844
 C163 C 0.17155 0.05043 0.74183
 C164 C 0.16196 0.04990 0.78128
 C165 C 0.14723 0.03213 0.77704
 N166 N 0.14482 0.02395 0.75583
 H167 H 0.11404 -0.04161 0.77583
 H168 H 0.09610 0.02688 0.77525
 H169 H 0.07043 0.02123 0.80715
 H170 H 0.08830 -0.04898 0.80722
 H171 H 0.15509 0.02526 0.72182
 H172 H 0.18041 0.05732 0.72752
 H173 H 0.16396 0.05579 0.79839
 H174 H 0.13811 0.02459 0.79081
 C175 C 0.17440 -0.06077 0.73615
 C176 C 0.07721 0.01249 0.68947
 C177 C 0.17430 0.05944 0.76351
 C178 C 0.07731 -0.01440 0.81000
 C179 C 0.60780 0.48977 0.20563
 H180 H 0.61946 0.47598 0.20527
 C181 C 0.59364 0.49325 0.18721
 H182 H 0.59444 0.48195 0.17298
 C183 C 0.59295 0.52168 0.22400
 H184 H 0.59289 0.53288 0.23825
 C185 C 0.57875 0.52596 0.20580
 H186 H 0.56755 0.54023 0.20639
 N187 N 0.60694 0.50367 0.22377
 C188 C 0.66711 0.47635 0.24605
 H189 H 0.67400 0.49271 0.24968
 C190 C 0.68165 0.45833 0.24277
 H191 H 0.69961 0.46110 0.24376
 C192 C 0.63551 0.45292 0.23987
 H193 H 0.61747 0.45094 0.23875
 C194 C 0.64946 0.43445 0.23637
 H195 H 0.64201 0.41826 0.23281
 Zn196 Zn 0.62544 0.49857 0.24943
 N197 N 0.64448 0.47339 0.24465
 C198 C 0.60542 0.47349 0.28507
 N199 N 0.60700 0.49400 0.27518
 C200 C 0.59565 0.51188 0.28363
 C201 C 0.58160 0.50940 0.30226
 C202 C 0.59140 0.47020 0.30359
 C203 C 0.64811 0.53832 0.23717
 C204 C 0.66206 0.55687 0.24051
 C205 C 0.66617 0.54603 0.27946
 C206 C 0.65221 0.52764 0.27535
 N207 N 0.64351 0.52417 0.25448
 H208 H 0.61487 0.45952 0.27862
 H209 H 0.59776 0.52823 0.27613
 H210 H 0.57297 0.52394 0.30882
 H211 H 0.58993 0.45357 0.31070
 H212 H 0.64115 0.53508 0.22067
 H213 H 0.66548 0.56803 0.22656
 H214 H 0.67323 0.54836 0.29609
 H215 H 0.64847 0.51596 0.28875
 C216 C 0.67286 0.43703 0.23789
 C217 C 0.57883 0.51148 0.18723
 C218 C 0.67133 0.56088 0.26187
 C219 C 0.57914 0.48827 0.31238
 C220 C 0.90721 0.51112 0.71738
 H221 H 0.90591 0.52756 0.72493
 C222 C 0.92204 0.50759 0.69957
 H223 H 0.93176 0.52159 0.69325
 C224 C 0.89584 0.47307 0.71647
 H225 H 0.88605 0.45952 0.72350
 C226 C 0.91064 0.46873 0.69879
 H227 H 0.91195 0.45181 0.69237
 N228 N 0.89419 0.49408 0.72518
 C229 C 0.84311 0.53264 0.76062
 H230 H 0.84424 0.52489 0.77702
 C231 C 0.82840 0.55049 0.75717
 H232 H 0.81861 0.55663 0.77120
 C233 C 0.85482 0.53406 0.72258
 H234 H 0.86474 0.52725 0.70901
 C235 C 0.84015 0.55181 0.71832
 H236 H 0.83902 0.55848 0.70143
 Zn237 Zn 0.87507 0.50033 0.74981
 N238 N 0.85619 0.52503 0.74354
 C239 C 0.89562 0.52745 0.78351
 N240 N 0.89396 0.50649 0.77467
 C241 C 0.90680 0.48939 0.78254
 C242 C 0.92157 0.49284 0.80046
 C243 C 0.91037 0.53171 0.80131
 C244 C 0.84345 0.46746 0.73871
 C245 C 0.82873 0.44957 0.74220
 C246 C 0.83901 0.44975 0.78151
 C247 C 0.85385 0.46739 0.77717
 N248 N 0.85596 0.47570 0.75598
 H249 H 0.88588 0.54101 0.77650
 H250 H 0.90542 0.47297 0.77493
 H251 H 0.93118 0.47881 0.80679
 H252 H 0.91173 0.54861 0.80782
 H253 H 0.84511 0.47469 0.72211
 H254 H 0.81955 0.44285 0.72799
 H255 H 0.83726 0.44376 0.79860
 H256 H 0.86330 0.47474 0.79084
 C257 C 0.82672 0.56034 0.73577
 C258 C 0.92393 0.48614 0.69000
 C259 C 0.82627 0.44045 0.76387
 C260 C 0.92356 0.51426 0.81009
 C261 C 0.21764 0.40632 0.01095
 H262 H 0.22572 0.40527 0.02723
 C263 C 0.19978 0.42108 0.00771
 H264 H 0.19396 0.43101 0.02178
 C265 C 0.21540 0.39430 -0.02695
 H266 H 0.22188 0.38423 -0.04056
 C267 C 0.19764 0.40903 -0.03102
 H268 H 0.19065 0.41005 -0.04780
 N269 N 0.22484 0.39304 -0.00615
 C270 C 0.26035 0.34169 0.03200
 H271 H 0.27664 0.34256 0.02399
 C272 C 0.25689 0.32703 0.04996
 H273 H 0.27082 0.31701 0.05592
 C274 C 0.22259 0.35399 0.03395
 H275 H 0.20911 0.36413 0.02731
 C276 C 0.21832 0.33938 0.05180
 H277 H 0.20151 0.33852 0.05871
 Zn278 Zn 0.24951 0.37395 -0.00022
 N279 N 0.24342 0.35506 0.02461
 C280 C 0.28428 0.39370 0.02635
 N281 N 0.27451 0.39273 0.00568
 C282 C 0.28171 0.40602 -0.01143
 C283 C 0.29990 0.42049 -0.00835
 C284 C 0.30241 0.40811 0.03024
 C285 C 0.23827 0.34189 -0.03267
 C286 C 0.24165 0.32723 -0.05064
 C287 C 0.28046 0.33908 -0.05204
 C288 C 0.27627 0.35370 -0.03420
 N289 N 0.25537 0.35502 -0.02507
 H290 H 0.27782 0.38359 0.03997
 H291 H 0.27339 0.40517 -0.02760
 H292 H 0.30569 0.43044 -0.02243
 H293 H 0.30971 0.40888 0.04691
 H294 H 0.22192 0.34296 -0.02482
 H295 H 0.22761 0.31740 -0.05677
 H296 H 0.29732 0.33801 -0.05877
 H297 H 0.28986 0.36363 -0.02739
 C298 C 0.23562 0.32570 0.06013
 C299 C 0.18950 0.42262 -0.01352
 C300 C 0.26300 0.32565 -0.06060
 C301 C 0.31054 0.42170 0.01272
 C302 C 0.71924 0.09318 -0.01159
 H303 H 0.72698 0.09411 -0.02802
 C304 C 0.70127 0.07857 -0.00796
 H305 H 0.69502 0.06864 -0.02187
 C306 C 0.71799 0.10530 0.02632
 H307 H 0.72491 0.11534 0.03978
 C308 C 0.70012 0.09075 0.03077
 H309 H 0.69347 0.08983 0.04768
 N310 N 0.72698 0.10643 0.00533
 C311 C 0.76293 0.15649 -0.03413
 H312 H 0.77939 0.15520 -0.02649
 C313 C 0.75953 0.17108 -0.05214
 H314 H 0.77362 0.18064 -0.05851
 C315 C 0.72473 0.14529 -0.03508
 H316 H 0.71109 0.13562 -0.02802
 C317 C 0.72051 0.15985 -0.05298
 H318 H 0.70357 0.16115 -0.05951
 Zn319 Zn 0.75183 0.12518 -0.00114
 N320 N 0.74573 0.14374 -0.02619
 C321 C 0.78470 0.10370 -0.02830
 N322 N 0.77642 0.10604 -0.00712
 C323 C 0.78462 0.09371 0.01025
 C324 C 0.80244 0.07893 0.00687
 C325 C 0.80226 0.08880 -0.03253
 C326 C 0.74113 0.15756 0.03096
 C327 C 0.74465 0.17238 0.04879
 C328 C 0.78354 0.16092 0.04989
 C329 C 0.77921 0.14614 0.03218
 N330 N 0.75818 0.14449 0.02333
 H331 H 0.77738 0.11300 -0.04205
 H332 H 0.77741 0.09555 0.02684
 H333 H 0.80912 0.06989 0.02115
 H334 H 0.80821 0.08686 -0.04961
 H335 H 0.72468 0.15625 0.02331
 H336 H 0.73063 0.18208 0.05501
 H337 H 0.80046 0.16219 0.05646
 H338 H 0.79277 0.13630 0.02530
 C339 C 0.73805 0.17298 -0.06180
 C340 C 0.69144 0.07717 0.01348
 C341 C 0.76609 0.17421 0.05856
 C342 C 0.81151 0.07623 -0.01479
 C343 C 0.21800 0.59355 0.48880
 H344 H 0.22599 0.59459 0.47250
 C345 C 0.20006 0.57882 0.49209
 H346 H 0.19410 0.56890 0.47805
 C347 C 0.21606 0.60554 0.52672
 H348 H 0.22269 0.61558 0.54032
 C349 C 0.19822 0.59085 0.53084
 H350 H 0.19133 0.58983 0.54765
 N351 N 0.22538 0.60679 0.50589
 C352 C 0.26121 0.65796 0.46766
 H353 H 0.27753 0.65701 0.47565
 C354 C 0.25785 0.67259 0.44967
 H355 H 0.27186 0.68251 0.44367
 C356 C 0.22332 0.64586 0.46579
 H357 H 0.20977 0.63581 0.47246
 C358 C 0.21914 0.66045 0.44791
 H359 H 0.20232 0.66139 0.44102
 Zn360 Zn 0.25019 0.62578 0.49993
 N361 N 0.24417 0.64470 0.47510
 C362 C 0.28445 0.60579 0.47318
 N363 N 0.27498 0.60690 0.49396
 C364 C 0.28226 0.59361 0.51103
 C365 C 0.30024 0.57901 0.50779
 C366 C 0.30235 0.59125 0.46912
 C367 C 0.23922 0.65787 0.53227
 C368 C 0.24262 0.67249 0.55029
 C369 C 0.28131 0.66046 0.55200
 C370 C 0.27710 0.64589 0.53408
 N371 N 0.25624 0.64468 0.52479
 H372 H 0.27791 0.61587 0.45959
 H373 H 0.27415 0.59454 0.52728
 H374 H 0.30612 0.56907 0.52183
 H375 H 0.30941 0.59037 0.45237
 H376 H 0.22290 0.65687 0.52430
 H377 H 0.22863 0.68235 0.55633
 H378 H 0.29814 0.66144 0.55888
 H379 H 0.29063 0.63589 0.52738
 C380 C 0.23656 0.67402 0.43952
 C381 C 0.18990 0.57728 0.51336
 C382 C 0.26392 0.67396 0.56043
 C383 C 0.31058 0.57767 0.48659
 C384 C 0.71611 0.90645 0.51110
 H385 H 0.72332 0.90461 0.52770
 C386 C 0.69824 0.92117 0.50770
 H387 H 0.69152 0.93015 0.52200
 C388 C 0.71610 0.89655 0.47252
 H389 H 0.72347 0.88730 0.45877
 C390 C 0.69848 0.91139 0.46828
 H391 H 0.69253 0.91334 0.45119
 N392 N 0.72437 0.89419 0.49372
 C393 C 0.76013 0.84347 0.53241
 H394 H 0.77663 0.84505 0.52493
 C395 C 0.75674 0.82866 0.55025
 H396 H 0.77087 0.81923 0.55666
 C397 C 0.72183 0.85414 0.53311
 H398 H 0.70814 0.86365 0.52600
 C399 C 0.71762 0.83937 0.55084
 H400 H 0.70066 0.83778 0.55722
 Zn401 Zn 0.74905 0.87517 0.49979
 N402 N 0.74289 0.85611 0.52447
 C403 C 0.78212 0.89619 0.52729
 N404 N 0.77386 0.89406 0.50606
 C405 C 0.78224 0.90645 0.48882
 C406 C 0.80022 0.92109 0.49238
 C407 C 0.79986 0.91094 0.53170
 C408 C 0.73777 0.84375 0.46685
 C409 C 0.74112 0.82904 0.44893
 C410 C 0.78031 0.83967 0.44851
 C411 C 0.77616 0.85434 0.46633
 N412 N 0.75508 0.85630 0.47493
 H413 H 0.77466 0.88685 0.54095
 H414 H 0.77504 0.90479 0.47219
 H415 H 0.80702 0.93018 0.47819
 H416 H 0.80580 0.91272 0.54882
 H417 H 0.72127 0.84531 0.47431
 H418 H 0.72695 0.81966 0.44242
 H419 H 0.79728 0.83809 0.44217
 H420 H 0.78989 0.86378 0.47355
 C421 C 0.73523 0.82643 0.55973
 C422 C 0.68917 0.92389 0.48603
 C423 C 0.76264 0.82681 0.43949
 C424 C 0.80928 0.92358 0.51409
 C425 C 0.01038 0.21739 0.40848
 H426 H 0.02693 0.22479 0.40712
 C427 C 0.00671 0.19963 0.42330
 H428 H 0.02072 0.19319 0.43295
 C429 C -0.02782 0.21680 0.39726
 H430 H -0.04137 0.22393 0.38753
 C431 C -0.03230 0.19916 0.41204
 H432 H -0.04932 0.19287 0.41340
 N433 N -0.00668 0.22533 0.39553
 C434 C 0.03251 0.26053 0.34463
 H435 H 0.02493 0.27694 0.34590
 C436 C 0.05039 0.25705 0.32990
 H437 H 0.05674 0.27105 0.32021
 C438 C 0.03341 0.22250 0.35602
 H439 H 0.02638 0.20897 0.36581
 C440 C 0.05120 0.21821 0.34132
 H441 H 0.05768 0.20133 0.34005
 Zn442 Zn -0.00023 0.24980 0.37631
 N443 N 0.02461 0.24346 0.35754
 C444 C 0.02725 0.28274 0.39740
 N445 N 0.00599 0.27465 0.39508
 C446 C -0.01132 0.28327 0.40718
 C447 C -0.00776 0.30129 0.42172
 C448 C 0.03164 0.30052 0.41207
 C449 C -0.03311 0.23847 0.34473
 C450 C -0.05105 0.24175 0.32998
 C451 C -0.05079 0.28104 0.33974
 C452 C -0.03306 0.27692 0.35458
 N453 N -0.02481 0.25583 0.35702
 H454 H 0.04093 0.27511 0.38828
 H455 H -0.02799 0.27622 0.40535
 H456 H -0.02198 0.30828 0.43059
 H457 H 0.04878 0.30632 0.41401
 H458 H -0.02590 0.22195 0.34661
 H459 H -0.05782 0.22748 0.32099
 H460 H -0.05679 0.29804 0.33777
 H461 H -0.02564 0.29068 0.36378
 C462 C 0.05998 0.23563 0.32803
 C463 C -0.01487 0.19022 0.42524
 C464 C -0.06018 0.26329 0.32728
 C465 C 0.01399 0.31016 0.42442
 C466 C -0.01152 0.71619 0.09312
 H467 H -0.02813 0.72335 0.09461
 C468 C -0.00788 0.69824 0.07854
 H469 H -0.02202 0.69141 0.06933
 C470 C 0.02685 0.71640 0.10373
 H471 H 0.04044 0.72388 0.11320
 C472 C 0.03134 0.69871 0.08903
 H473 H 0.04845 0.69283 0.08740
 N474 N 0.00564 0.72460 0.10567
 C475 C -0.03301 0.76046 0.15649
 H476 H -0.02518 0.77679 0.15520
 C477 C -0.05103 0.75723 0.17113
 H478 H -0.05721 0.77133 0.18074
 C479 C -0.03448 0.72242 0.14519
 H480 H -0.02762 0.70876 0.13548
 C481 C -0.05241 0.71838 0.15979
 H482 H -0.05920 0.70158 0.16104
 Zn483 Zn -0.00067 0.74938 0.12448
 N484 N -0.02538 0.74329 0.14358
 C485 C -0.02800 0.78269 0.10382
 N486 N -0.00699 0.77388 0.10529
 C487 C 0.01003 0.78156 0.09214
 C488 C 0.00646 0.79930 0.07728
 C489 C -0.03238 0.80032 0.08900
 C490 C 0.03192 0.73890 0.15650
 C491 C 0.04979 0.74255 0.17128
 C492 C 0.05069 0.78129 0.15954
 C493 C 0.03294 0.77683 0.14480
 N494 N 0.02409 0.75584 0.14341
 H495 H -0.04151 0.77581 0.11379
 H496 H 0.02647 0.77397 0.09335
 H497 H 0.02043 0.80552 0.06744
 H498 H -0.04930 0.80682 0.08783
 H499 H 0.02432 0.72245 0.15533
 H500 H 0.05610 0.72864 0.18109
 H501 H 0.05720 0.79821 0.16069
 H502 H 0.02596 0.79027 0.13485
 C503 C -0.06103 0.73595 0.17293
 C504 C 0.01382 0.68925 0.07623
 C505 C 0.05943 0.76401 0.17300
 C506 C -0.01500 0.80895 0.07553
 C507 C 0.48880 0.21755 0.59322
 H508 H 0.47228 0.22498 0.59445
 C509 C 0.49245 0.19969 0.57854
 H510 H 0.47847 0.19321 0.56884
 C511 C 0.52693 0.21699 0.60469
 H512 H 0.54044 0.22414 0.61451
 C513 C 0.53139 0.19924 0.59005
 H514 H 0.54838 0.19290 0.58884
 N515 N 0.50585 0.22561 0.60616
 C516 C 0.46616 0.26120 0.65624
 H517 H 0.47321 0.27784 0.65451
 C518 C 0.44827 0.25754 0.67095
 H519 H 0.44136 0.27167 0.68000
 C520 C 0.46660 0.22282 0.64613
 H521 H 0.47415 0.20925 0.63682
 C522 C 0.44898 0.21832 0.66098
 H523 H 0.44324 0.20120 0.66287
 Zn524 Zn 0.49941 0.25038 0.62494
 N525 N 0.47465 0.24405 0.64388
 C526 C 0.47216 0.28365 0.60395
 N527 N 0.49318 0.27490 0.60572
 C528 C 0.51037 0.28274 0.59290
 C529 C 0.50702 0.30066 0.57821
 C530 C 0.46800 0.30146 0.58930
 C531 C 0.53180 0.23995 0.65721
 C532 C 0.54962 0.24361 0.67204
 C533 C 0.55052 0.28236 0.66032
 C534 C 0.53281 0.27789 0.64553
 N535 N 0.52402 0.25688 0.64406
 H536 H 0.45849 0.27661 0.61359
 H537 H 0.52682 0.27518 0.59430
 H538 H 0.52115 0.30704 0.56870
 H539 H 0.45108 0.30796 0.58792
 H540 H 0.52421 0.22350 0.65601
 H541 H 0.55591 0.22970 0.68186
 H542 H 0.55700 0.29928 0.66150
 H543 H 0.52585 0.29133 0.63557
 C544 C 0.43944 0.23583 0.67359
 C545 C 0.51401 0.19029 0.57674
 C546 C 0.55925 0.26507 0.67378
 C547 C 0.48559 0.31033 0.57627
 C548 C 0.51161 0.71804 0.90843
 H549 H 0.52794 0.72602 0.90792
 C550 C 0.50795 0.69997 0.92285
 H551 H 0.52177 0.69385 0.93297
 C552 C 0.47391 0.71642 0.89571
 H553 H 0.46055 0.72316 0.88544
 C554 C 0.46944 0.69843 0.91008
 H555 H 0.45260 0.69156 0.91066
 N556 N 0.49476 0.72578 0.89507
 C557 C 0.53134 0.76101 0.84178
 H558 H 0.52204 0.77644 0.84070
 C559 C 0.54911 0.75735 0.82694
 H560 H 0.55384 0.77058 0.81542
 C561 C 0.53584 0.72483 0.85734
 H562 H 0.53025 0.71182 0.86861
 C563 C 0.55353 0.72034 0.84259
 H564 H 0.56130 0.70396 0.84294
 Zn565 Zn 0.50062 0.75110 0.87649
 N566 N 0.52537 0.74509 0.85703
 C567 C 0.51264 0.79653 0.88672
 N568 N 0.50653 0.77634 0.89551
 C569 C 0.50373 0.77382 0.91810
 C570 C 0.50741 0.79175 0.93272
 C571 C 0.51655 0.81492 0.90076
 C572 C 0.46973 0.74070 0.84282
 C573 C 0.45169 0.74394 0.82819
 C574 C 0.44602 0.78053 0.84461
 C575 C 0.46397 0.77642 0.85919
 N576 N 0.47546 0.75680 0.85796
 H577 H 0.51402 0.79868 0.86881
 H578 H 0.49831 0.75797 0.92494
 H579 H 0.50529 0.78924 0.95063
 H580 H 0.52109 0.83089 0.89338
 H581 H 0.47919 0.72525 0.84222
 H582 H 0.44717 0.73065 0.81665
 H583 H 0.43751 0.79651 0.84550
 H584 H 0.46882 0.78902 0.87132
 C585 C 0.56054 0.73679 0.82720
 C586 C 0.48659 0.68994 0.92392
 C587 C 0.43963 0.76417 0.82879
 C588 C 0.51392 0.81265 0.92409
 C589 C 0.13344 0.22023 0.26671
 C590 C 0.13389 0.23157 0.24603
 C591 C 0.15194 0.22804 0.23131
 C592 C 0.16935 0.21311 0.23705
 C593 C 0.16851 0.20177 0.25784
 C594 C 0.15065 0.20537 0.27278
 C595 C 0.11459 0.22405 0.28234
 C596 C 0.11426 0.21292 0.30313
 C597 C 0.09641 0.21676 0.31802
 C598 C 0.07884 0.23149 0.31216
 C599 C 0.07941 0.24234 0.29109
 C600 C 0.09730 0.23878 0.27619
 C601 C 0.14969 0.19446 0.29370
 C602 C 0.13184 0.19822 0.30865
 C603 C 0.11627 0.24621 0.24048
 C604 C 0.09826 0.24970 0.25528
 H605 H 0.16289 0.18297 0.29860
 H606 H 0.13178 0.18952 0.32464
 H607 H 0.11640 0.25502 0.22455
 H608 H 0.08501 0.26112 0.25034
 H609 H 0.15231 0.23678 0.21534
 H610 H 0.18183 0.19032 0.26252
 H611 H 0.09637 0.20855 0.33427
 H612 H 0.06585 0.25338 0.28616
 C613 C 0.63385 0.72057 0.76587
 C614 C 0.65209 0.70741 0.77286
 C615 C 0.66991 0.70362 0.75792
 C616 C 0.66972 0.71320 0.73625
 C617 C 0.65130 0.72644 0.72958
 C618 C 0.63325 0.73004 0.74427
 C619 C 0.61504 0.72456 0.78149
 C620 C 0.59669 0.73751 0.77441
 C621 C 0.57884 0.74122 0.78930
 C622 C 0.57937 0.73242 0.81132
 C623 C 0.59802 0.71951 0.81811
 C624 C 0.61581 0.71542 0.80323
 C625 C 0.61460 0.74293 0.73780
 C626 C 0.59659 0.74652 0.75258
 C627 C 0.65220 0.69842 0.79470
 C628 C 0.63441 0.70243 0.80965
 H629 H 0.61391 0.75029 0.72115
 H630 H 0.58252 0.75655 0.74691
 H631 H 0.66620 0.68827 0.80032
 H632 H 0.63520 0.69526 0.82638
 H633 H 0.68405 0.69352 0.76328
 H634 H 0.65089 0.73377 0.71290
 H635 H 0.56446 0.75079 0.78363
 H636 H 0.59887 0.71291 0.83506
 C637 C 0.36601 0.77937 0.76736
 C638 C 0.36687 0.77018 0.74564
 C639 C 0.34881 0.77363 0.73088
 C640 C 0.33014 0.78647 0.73761
 C641 C 0.32969 0.79575 0.75941
 C642 C 0.34750 0.79208 0.77442
 C643 C 0.38485 0.77556 0.78304
 C644 C 0.38381 0.78441 0.80489
 C645 C 0.40166 0.78053 0.81982
 C646 C 0.42065 0.76818 0.81294
 C647 C 0.42142 0.75966 0.79080
 C648 C 0.40350 0.76313 0.77588
 C649 C 0.34712 0.80078 0.79638
 C650 C 0.36493 0.79692 0.81139
 C651 C 0.38581 0.75776 0.73911
 C652 C 0.40385 0.75438 0.75394
 H653 H 0.33290 0.81057 0.80204
 H654 H 0.36393 0.80385 0.82820
 H655 H 0.38670 0.75063 0.72237
 H656 H 0.41815 0.74474 0.74821
 H657 H 0.34939 0.76654 0.71411
 H658 H 0.31534 0.80553 0.76481
 H659 H 0.40059 0.78688 0.83685
 H660 H 0.43604 0.75053 0.78507
 C661 C -0.13449 0.27782 0.26655
 C662 C -0.13609 0.26501 0.24682
 C663 C -0.15433 0.26834 0.23227
 C664 C -0.17082 0.28468 0.23707
 C665 C -0.16871 0.29750 0.25698
 C666 C -0.15072 0.29400 0.27181
 C667 C -0.11543 0.27421 0.28201
 C668 C -0.11401 0.28676 0.30193
 C669 C -0.09600 0.28308 0.31669
 C670 C -0.07925 0.26720 0.31152
 C671 C -0.08088 0.25497 0.29126
 C672 C -0.09902 0.25826 0.27658
 C673 C -0.14867 0.30633 0.29185
 C674 C -0.13068 0.30270 0.30670
 C675 C -0.11937 0.24913 0.24200
 C676 C -0.10109 0.24589 0.25657
 H677 H -0.16111 0.31884 0.29614
 H678 H -0.12978 0.31251 0.32201
 H679 H -0.12038 0.23917 0.22679
 H680 H -0.08854 0.23352 0.25219
 H681 H -0.15545 0.25832 0.21709
 H682 H -0.18114 0.31009 0.26115
 H683 H -0.09523 0.29236 0.33234
 H684 H -0.06795 0.24303 0.28678
 C685 C -0.13585 0.72171 0.23292
 C686 C -0.15326 0.70713 0.22653
 C687 C -0.17139 0.70371 0.24120
 C688 C -0.17228 0.71492 0.26206
 C689 C -0.15469 0.72961 0.26810
 C690 C -0.13638 0.73297 0.25365
 C691 C -0.11667 0.72526 0.21763
 C692 C -0.09917 0.73969 0.22411
 C693 C -0.08095 0.74297 0.20954
 C694 C -0.08024 0.73212 0.18847
 C695 C -0.09803 0.71772 0.18226
 C696 C -0.11622 0.71416 0.19681
 C697 C -0.11856 0.74731 0.25954
 C698 C -0.10024 0.75057 0.24504
 C699 C -0.15220 0.69628 0.20558
 C700 C -0.13402 0.69978 0.19095
 H701 H -0.11876 0.75607 0.27550
 H702 H -0.08684 0.76175 0.25024
 H703 H -0.16555 0.68500 0.20043
 H704 H -0.13388 0.69111 0.17494
 H705 H -0.18485 0.69245 0.23628
 H706 H -0.15509 0.73825 0.28413
 H707 H -0.06724 0.75378 0.21471
 H708 H -0.09788 0.70953 0.16600
 C709 C 0.36592 0.21966 0.73487
 C710 C 0.36402 0.23275 0.75438
 C711 C 0.34584 0.22917 0.76893
 C712 C 0.32973 0.21231 0.76436
 C713 C 0.33222 0.19913 0.74476
 C714 C 0.35010 0.20291 0.72988
 C715 C 0.38480 0.22365 0.71930
 C716 C 0.38642 0.21092 0.69952
 C717 C 0.40420 0.21503 0.68460
 C718 C 0.42058 0.23148 0.68950
 C719 C 0.41877 0.24384 0.70966
 C720 C 0.40081 0.24017 0.72446
 C721 C 0.35240 0.19037 0.71001
 C722 C 0.37018 0.19438 0.69503
 C723 C 0.38035 0.24918 0.75895
 C724 C 0.39850 0.25274 0.74431
 H725 H 0.34027 0.17742 0.70592
 H726 H 0.37125 0.18441 0.67984
 H727 H 0.37912 0.25935 0.77399
 H728 H 0.41074 0.26555 0.74849
 H729 H 0.34444 0.23945 0.78390
 H730 H 0.32008 0.18614 0.74077
 H731 H 0.40507 0.20562 0.66904
 H732 H 0.43141 0.25621 0.71399
 C733 C 0.63314 0.28092 0.73471
 C734 C 0.65035 0.29581 0.72849
 C735 C 0.66840 0.29939 0.74325
 C736 C 0.66946 0.28799 0.76399
 C737 C 0.65203 0.27309 0.76992
 C738 C 0.63378 0.26958 0.75538
 C739 C 0.61414 0.27705 0.71922
 C740 C 0.59688 0.26226 0.72550
 C741 C 0.57888 0.25861 0.71071
 C742 C 0.57817 0.26938 0.68960
 C743 C 0.59571 0.28416 0.68362
 C744 C 0.61367 0.28813 0.69840
 C745 C 0.61618 0.25492 0.76108
 C746 C 0.59800 0.25138 0.74642
 C747 C 0.64922 0.30669 0.70757
 C748 C 0.63122 0.30287 0.69275
 H749 H 0.61645 0.24610 0.77701
 H750 H 0.58478 0.23993 0.75147
 H751 H 0.66240 0.31820 0.70255
 H752 H 0.63105 0.31153 0.67674
 H753 H 0.68174 0.31081 0.73843
 H754 H 0.65259 0.26430 0.78586
 H755 H 0.56534 0.24752 0.71572
 H756 H 0.59559 0.29231 0.66734
 C757 C 0.13311 0.78004 0.23415
 C758 C 0.15031 0.79493 0.22797
 C759 C 0.16828 0.79861 0.24282
 C760 C 0.16926 0.78729 0.26361
 C761 C 0.15183 0.77237 0.26949
 C762 C 0.13366 0.76877 0.25487
 C763 C 0.11418 0.77609 0.21859
 C764 C 0.09691 0.76131 0.22484
 C765 C 0.07897 0.75760 0.20998
 C766 C 0.07833 0.76833 0.18885
 C767 C 0.09588 0.78310 0.18290
 C768 C 0.11378 0.78711 0.19774
 C769 C 0.11605 0.75410 0.26053
 C770 C 0.09795 0.75049 0.24580
 C771 C 0.14927 0.80575 0.20701
 C772 C 0.13134 0.80186 0.19212
 H773 H 0.11626 0.74534 0.27649
 H774 H 0.08472 0.73904 0.25082
 H775 H 0.16246 0.81726 0.20203
 H776 H 0.13123 0.81048 0.17609
 H777 H 0.18162 0.81004 0.23803
 H778 H 0.15230 0.76365 0.28547
 H779 H 0.06542 0.74652 0.21498
 H780 H 0.09580 0.79122 0.16660
 C781 C 0.26511 0.13347 0.22109
 C782 C 0.27136 0.15082 0.20641
 C783 C 0.25651 0.16868 0.20283
 C784 C 0.23564 0.16942 0.21402
 C785 C 0.22972 0.15188 0.22877
 C786 C 0.24434 0.13381 0.23226
 C787 C 0.28064 0.11461 0.22488
 C788 C 0.27431 0.09718 0.23941
 C789 C 0.28912 0.07928 0.24293
 C790 C 0.31027 0.07883 0.23225
 C791 C 0.31631 0.09655 0.21775
 C792 C 0.30152 0.11441 0.21393
 C793 C 0.23861 0.11606 0.24670
 C794 C 0.25332 0.09802 0.25016
 C795 C 0.29236 0.14998 0.19568
 C796 C 0.30722 0.13212 0.19943
 H797 H 0.22262 0.11610 0.25539
 H798 H 0.24824 0.08467 0.26142
 H799 H 0.29740 0.16328 0.18434
 H800 H 0.32328 0.13216 0.19087
 H801 H 0.26132 0.18211 0.19154
 H802 H 0.21369 0.15217 0.23739
 H803 H 0.28405 0.06560 0.25380
 H804 H 0.33263 0.09662 0.20969
 C805 C 0.76578 0.63388 0.72056
 C806 C 0.77197 0.65118 0.70580
 C807 C 0.75710 0.66904 0.70223
 C808 C 0.73628 0.66980 0.71349
 C809 C 0.73042 0.65230 0.72831
 C810 C 0.74506 0.63425 0.73181
 C811 C 0.78131 0.61502 0.72432
 C812 C 0.77503 0.59763 0.73893
 C813 C 0.78984 0.57972 0.74243
 C814 C 0.81095 0.57922 0.73167
 C815 C 0.81694 0.59689 0.71709
 C816 C 0.80215 0.61476 0.71328
 C817 C 0.73938 0.61655 0.74632
 C818 C 0.75408 0.59851 0.74976
 C819 C 0.79293 0.65030 0.69498
 C820 C 0.80779 0.63244 0.69871
 H821 H 0.72342 0.61662 0.75507
 H822 H 0.74904 0.58519 0.76108
 H823 H 0.79792 0.66356 0.68358
 H824 H 0.82382 0.63244 0.69008
 H825 H 0.76186 0.68243 0.69086
 H826 H 0.71441 0.65261 0.73698
 H827 H 0.78480 0.56608 0.75336
 H828 H 0.83323 0.59692 0.70896
 C829 C 0.76526 0.36665 0.77930
 C830 C 0.74555 0.36498 0.76643
 C831 C 0.73100 0.34679 0.76989
 C832 C 0.73578 0.33044 0.78641
 C833 C 0.75563 0.33266 0.79934
 C834 C 0.77048 0.35057 0.79569
 C835 C 0.78078 0.38559 0.77549
 C836 C 0.80072 0.38703 0.78803
 C837 C 0.81557 0.40489 0.78411
 C838 C 0.81043 0.42151 0.76803
 C839 C 0.79013 0.41988 0.75584
 C840 C 0.77538 0.40186 0.75933
 C841 C 0.79053 0.35267 0.80804
 C842 C 0.80545 0.37052 0.80419
 C843 C 0.74076 0.38156 0.75036
 C844 C 0.75536 0.39975 0.74695
 H845 H 0.79479 0.34034 0.82071
 H846 H 0.82077 0.37144 0.81401
 H847 H 0.72556 0.38050 0.74036
 H848 H 0.75101 0.41218 0.73442
 H849 H 0.71586 0.34559 0.75980
 H850 H 0.75978 0.32034 0.81207
 H851 H 0.83124 0.40564 0.79336
 H852 H 0.78565 0.43270 0.74375
 C853 C 0.26497 -0.13393 0.27901
 C854 C 0.27007 -0.14991 0.29553
 C855 C 0.25518 -0.16778 0.29921
 C856 C 0.23541 -0.17007 0.28617
 C857 C 0.23075 -0.15383 0.26950
 C858 C 0.24534 -0.13567 0.26603
 C859 C 0.28051 -0.11501 0.27519
 C860 C 0.27521 -0.09882 0.25893
 C861 C 0.28996 -0.08080 0.25546
 C862 C 0.31018 -0.07909 0.26778
 C863 C 0.31523 -0.09565 0.28395
 C864 C 0.30037 -0.11351 0.28785
 C865 C 0.24065 -0.11918 0.24983
 C866 C 0.25527 -0.10101 0.24642
 C867 C 0.29005 -0.14775 0.30799
 C868 C 0.30499 -0.12993 0.30413
 H869 H 0.22552 -0.12029 0.23974
 H870 H 0.25100 -0.08863 0.23380
 H871 H 0.29422 -0.16001 0.32076
 H872 H 0.32026 -0.12895 0.31404
 H873 H 0.25924 -0.18002 0.31205
 H874 H 0.21568 -0.15509 0.25933
 H875 H 0.28554 -0.06803 0.24330
 H876 H 0.33084 -0.09486 0.29331
 C877 C 0.23505 -0.13472 0.72142
 C878 C 0.25443 -0.13661 0.73473
 C879 C 0.26891 -0.15481 0.73140
 C880 C 0.26442 -0.17093 0.71454
 C881 C 0.24489 -0.16850 0.70118
 C882 C 0.23009 -0.15059 0.70472
 C883 C 0.21962 -0.11575 0.72506
 C884 C 0.20000 -0.11409 0.71206
 C885 C 0.18523 -0.09619 0.71582
 C886 C 0.19015 -0.07974 0.73217
 C887 C 0.21015 -0.08159 0.74481
 C888 C 0.22479 -0.09966 0.74150
 C889 C 0.21035 -0.14829 0.69192
 C890 C 0.19550 -0.13042 0.69562
 C891 C 0.25899 -0.12022 0.75109
 C892 C 0.24448 -0.10199 0.75433
 H893 H 0.20630 -0.16046 0.67901
 H894 H 0.18043 -0.12933 0.68545
 H895 H 0.27393 -0.12144 0.76144
 H896 H 0.24865 -0.08969 0.76709
 H897 H 0.28381 -0.15617 0.74182
 H898 H 0.24096 -0.18065 0.68820
 H899 H 0.16978 -0.09529 0.70620
 H900 H 0.21448 -0.06890 0.75711
 C901 C 0.73294 0.36285 0.22337
 C902 C 0.75158 0.36012 0.23759
 C903 C 0.76640 0.34229 0.23376
 C904 C 0.76276 0.32728 0.21579
 C905 C 0.74390 0.33029 0.20172
 C906 C 0.72893 0.34804 0.20546
 C907 C 0.71738 0.38166 0.22725
 C908 C 0.69874 0.38441 0.21303
 C909 C 0.68409 0.40243 0.21669
 C910 C 0.68808 0.41769 0.23435
 C911 C 0.70684 0.41459 0.24850
 C912 C 0.72153 0.39660 0.24503
 C913 C 0.71008 0.35131 0.19161
 C914 C 0.69523 0.36918 0.19533
 C915 C 0.75509 0.37533 0.25529
 C916 C 0.74033 0.39327 0.25894
 H917 H 0.70678 0.33999 0.17773
 H918 H 0.68092 0.37113 0.18423
 H919 H 0.76941 0.37340 0.26639
 H920 H 0.74369 0.40467 0.27274
 H921 H 0.78082 0.34024 0.24471
 H922 H 0.74083 0.31888 0.18787
 H923 H 0.66985 0.40483 0.20558
 H924 H 0.70987 0.42608 0.26230
 C925 C 0.73138 0.63531 0.27692
 C926 C 0.72927 0.64815 0.29659
 C927 C 0.74404 0.66615 0.30022
 C928 C 0.76092 0.67129 0.28439
 C929 C 0.76275 0.65816 0.26475
 C930 C 0.74802 0.64019 0.26092
 C931 C 0.71591 0.61635 0.27302
 C932 C 0.71800 0.60355 0.25332
 C933 C 0.70329 0.58552 0.24971
 C934 C 0.68663 0.58019 0.26568
 C935 C 0.68479 0.59322 0.28536
 C936 C 0.69937 0.61136 0.28910
 C937 C 0.74959 0.62699 0.24142
 C938 C 0.73482 0.60899 0.23767
 C939 C 0.71245 0.64269 0.31224
 C940 C 0.69777 0.62460 0.30857
 H941 H 0.76235 0.63059 0.22894
 H942 H 0.73662 0.59923 0.22242
 H943 H 0.71064 0.65247 0.32749
 H944 H 0.68507 0.62094 0.32109
 H945 H 0.74244 0.67604 0.31542
 H946 H 0.77559 0.66191 0.25239
 H947 H 0.70503 0.57540 0.23467
 H948 H 0.67188 0.58939 0.29762
 C949 C 0.23491 0.13366 0.77865
 C950 C 0.22988 0.14951 0.79531
 C951 C 0.24470 0.16745 0.79899
 C952 C 0.26434 0.16992 0.78583
 C953 C 0.26890 0.15383 0.76899
 C954 C 0.25439 0.13560 0.76551
 C955 C 0.21947 0.11464 0.77487
 C956 C 0.22471 0.09857 0.75847
 C957 C 0.21007 0.08045 0.75505
 C958 C 0.19001 0.07851 0.76756
 C959 C 0.18502 0.09495 0.78386
 C960 C 0.19977 0.11292 0.78771
 C961 C 0.25901 0.11923 0.74918
 C962 C 0.24449 0.10097 0.74580
 C963 C 0.21006 0.14715 0.80793
 C964 C 0.19521 0.12923 0.80412
 H965 H 0.27403 0.12050 0.73896
 H966 H 0.24872 0.08868 0.73308
 H967 H 0.20594 0.15930 0.82082
 H968 H 0.18007 0.12808 0.81417
 H969 H 0.24071 0.17958 0.81195
 H970 H 0.28388 0.15522 0.75872
 H971 H 0.21445 0.06777 0.74279
 H972 H 0.16953 0.09398 0.79337
 C973 C 0.22011 0.26506 0.13413
 C974 C 0.20565 0.27145 0.15162
 C975 C 0.20199 0.25666 0.16959
 C976 C 0.21290 0.23572 0.17027
 C977 C 0.22742 0.22966 0.15258
 C978 C 0.23099 0.24422 0.13441
 C979 C 0.22398 0.28052 0.11516
 C980 C 0.23828 0.27405 0.09758
 C981 C 0.24187 0.28879 0.07957
 C982 C 0.23150 0.31001 0.07916
 C983 C 0.21723 0.31621 0.09703
 C984 C 0.21333 0.30148 0.11500
 C985 C 0.24521 0.23834 0.11652
 C986 C 0.24874 0.25298 0.09838
 C987 C 0.19521 0.29253 0.15082
 C988 C 0.19904 0.30732 0.13286
 H989 H 0.25367 0.22228 0.11652
 H990 H 0.25982 0.24779 0.08492
 H991 H 0.18404 0.29768 0.16423
 H992 H 0.19071 0.32345 0.13293
 H993 H 0.19087 0.26158 0.18313
 H994 H 0.23582 0.21357 0.15283
 H995 H 0.25256 0.28361 0.06578
 H996 H 0.20940 0.33258 0.09713
 C997 C 0.72009 0.76535 0.63342
 C998 C 0.73169 0.74490 0.63402
 C999 C 0.72822 0.73026 0.65214
 C1000 C 0.71310 0.73586 0.66948
 C1001 C 0.70149 0.75641 0.66848
 C1002 C 0.70502 0.77127 0.65055
 C1003 C 0.72385 0.78091 0.61451
 C1004 C 0.71246 0.80148 0.61404
 C1005 C 0.71625 0.81630 0.59614
 C1006 C 0.73118 0.81061 0.57865
 C1007 C 0.74232 0.78978 0.57936
 C1008 C 0.73881 0.77494 0.59730
 C1009 C 0.69385 0.79196 0.64945
 C1010 C 0.69755 0.80683 0.63154
 C1011 C 0.74654 0.73951 0.61648
 C1012 C 0.74999 0.75425 0.59840
 H1013 H 0.68220 0.79673 0.66259
 H1014 H 0.68865 0.82265 0.63137
 H1015 H 0.75556 0.72377 0.61672
 H1016 H 0.76158 0.74944 0.58522
 H1017 H 0.73718 0.71448 0.65263
 H1018 H 0.68990 0.76099 0.68175
 H1019 H 0.70783 0.83237 0.59600
 H1020 H 0.75355 0.78500 0.56586
 C1021 C 0.77769 0.76610 0.36550
 C1022 C 0.79282 0.77212 0.34843
 C1023 C 0.79630 0.75739 0.33040
 C1024 C 0.78459 0.73684 0.32923
 C1025 C 0.76944 0.73112 0.34654
 C1026 C 0.76601 0.74565 0.36475
 C1027 C 0.77395 0.78156 0.38449
 C1028 C 0.75892 0.77550 0.40162
 C1029 C 0.75542 0.79026 0.41963
 C1030 C 0.76665 0.81109 0.42049
 C1031 C 0.78165 0.81687 0.40308
 C1032 C 0.78543 0.80213 0.38510
 C1033 C 0.75110 0.74016 0.38223
 C1034 C 0.74766 0.75481 0.40038
 C1035 C 0.80407 0.79281 0.34967
 C1036 C 0.80040 0.80759 0.36767
 H1037 H 0.74201 0.72441 0.38187
 H1038 H 0.73602 0.74993 0.41350
 H1039 H 0.81577 0.79766 0.33659
 H1040 H 0.80937 0.82341 0.36794
 H1041 H 0.80791 0.76206 0.31717
 H1042 H 0.76041 0.71534 0.34591
 H1043 H 0.74413 0.78541 0.43308
 H1044 H 0.79015 0.83294 0.40333
 C1045 C 0.27871 0.26484 -0.13438
 C1046 C 0.29358 0.27106 -0.15161
 C1047 C 0.29737 0.25620 -0.16948
 C1048 C 0.28621 0.23535 -0.17033
 C1049 C 0.27127 0.22946 -0.15291
 C1050 C 0.26756 0.24409 -0.13484
 C1051 C 0.27472 0.28037 -0.11551
 C1052 C 0.26002 0.27406 -0.09817
 C1053 C 0.25636 0.28884 -0.08021
 C1054 C 0.26707 0.30995 -0.07962
 C1055 C 0.28169 0.31600 -0.09727
 C1056 C 0.28567 0.30123 -0.11518
 C1057 C 0.25293 0.23838 -0.11720
 C1058 C 0.24929 0.25309 -0.09914
 C1059 C 0.30428 0.29205 -0.15066
 C1060 C 0.30034 0.30691 -0.13279
 H1061 H 0.24426 0.22240 -0.11733
 H1062 H 0.23790 0.24802 -0.08586
 H1063 H 0.31576 0.29707 -0.16387
 H1064 H 0.30890 0.32296 -0.13273
 H1065 H 0.30881 0.26099 -0.18283
 H1066 H 0.26266 0.21343 -0.15329
 H1067 H 0.24539 0.28378 -0.06660
 H1068 H 0.28977 0.33229 -0.09725
 C1069 C 0.72230 0.23426 -0.13517
 C1070 C 0.73369 0.25488 -0.13561
 C1071 C 0.72992 0.26967 -0.15353
 C1072 C 0.71467 0.26408 -0.17082
 C1073 C 0.70330 0.24334 -0.17002
 C1074 C 0.70714 0.22832 -0.15229
 C1075 C 0.72629 0.21859 -0.11641
 C1076 C 0.71506 0.19788 -0.11607
 C1077 C 0.71902 0.18299 -0.09826
 C1078 C 0.73394 0.18877 -0.08073
 C1079 C 0.74493 0.20974 -0.08133
 C1080 C 0.74127 0.22463 -0.09919
 C1081 C 0.69617 0.20746 -0.15134
 C1082 C 0.70011 0.19248 -0.13358
 C1083 C 0.74860 0.26031 -0.11808
 C1084 C 0.75227 0.24547 -0.10015
 H1085 H 0.68447 0.20266 -0.16447
 H1086 H 0.69133 0.17655 -0.13351
 H1087 H 0.75747 0.27619 -0.11821
 H1088 H 0.76387 0.25033 -0.08695
 H1089 H 0.73868 0.28561 -0.15387
 H1090 H 0.69161 0.23878 -0.18325
 H1091 H 0.71070 0.16682 -0.09820
 H1092 H 0.75613 0.21460 -0.06780
 C1093 C 0.22125 0.73460 0.36546
 C1094 C 0.20657 0.72829 0.34806
 C1095 C 0.20286 0.74312 0.33015
 C1096 C 0.21392 0.76403 0.32943
 C1097 C 0.22870 0.77000 0.34700
 C1098 C 0.23232 0.75540 0.36511
 C1099 C 0.22511 0.71913 0.38441
 C1100 C 0.23960 0.72555 0.40192
 C1101 C 0.24314 0.71083 0.41995
 C1102 C 0.23253 0.68967 0.42045
 C1103 C 0.21810 0.68352 0.40264
 C1104 C 0.21424 0.69823 0.38465
 C1105 C 0.24674 0.76121 0.38292
 C1106 C 0.25027 0.74656 0.40105
 C1107 C 0.19594 0.70726 0.34893
 C1108 C 0.19977 0.69246 0.36687
 H1109 H 0.25535 0.77723 0.38287
 H1110 H 0.26149 0.75171 0.41446
 H1111 H 0.18460 0.70217 0.33559
 H1112 H 0.19127 0.67638 0.36686
 H1113 H 0.19154 0.73828 0.31670
 H1114 H 0.23721 0.78607 0.34672
 H1115 H 0.25396 0.71597 0.43369
 H1116 H 0.21009 0.66720 0.40260
 C1117 C 0.27924 0.73437 0.63471
 C1118 C 0.26819 0.75513 0.63513
 C1119 C 0.27174 0.76964 0.65334
 C1120 C 0.28641 0.76364 0.67096
 C1121 C 0.29748 0.74278 0.67016
 C1122 C 0.29384 0.72804 0.65214
 C1123 C 0.27541 0.71896 0.61568
 C1124 C 0.28624 0.69810 0.61539
 C1125 C 0.28239 0.68343 0.59735
 C1126 C 0.26799 0.68958 0.57953
 C1127 C 0.25743 0.71072 0.58009
 C1128 C 0.26097 0.72539 0.59817
 C1129 C 0.30445 0.70704 0.65121
 C1130 C 0.30066 0.69230 0.63318
 C1131 C 0.25383 0.76096 0.61730
 C1132 C 0.25034 0.74637 0.59910
 H1133 H 0.31573 0.70193 0.66456
 H1134 H 0.30912 0.67625 0.63316
 H1135 H 0.24524 0.77695 0.61740
 H1136 H 0.23915 0.75153 0.58569
 H1137 H 0.26322 0.78567 0.65368
 H1138 H 0.30872 0.73791 0.68365
 H1139 H 0.29036 0.66712 0.59735
 H1140 H 0.24664 0.71587 0.56635
 C1141 C 0.78102 0.23428 0.13317
 C1142 C 0.79577 0.22798 0.15048
 C1143 C 0.79909 0.24248 0.16874
 C1144 C 0.78755 0.26306 0.16993
 C1145 C 0.77279 0.26909 0.15239
 C1146 C 0.76955 0.25480 0.13392
 C1147 C 0.77741 0.21904 0.11396
 C1148 C 0.76275 0.22539 0.09661
 C1149 C 0.75932 0.21081 0.07842
 C1150 C 0.77020 0.18985 0.07763
 C1151 C 0.78487 0.18381 0.09525
 C1152 C 0.78861 0.19837 0.11339
 C1153 C 0.75503 0.26059 0.11621
 C1154 C 0.75174 0.24616 0.09784
 C1155 C 0.80679 0.20721 0.14924
 C1156 C 0.80322 0.19263 0.13105
 H1157 H 0.74612 0.27640 0.11656
 H1158 H 0.74038 0.25126 0.08455
 H1159 H 0.81819 0.20214 0.16250
 H1160 H 0.81197 0.17673 0.13080
 H1161 H 0.81039 0.23759 0.18216
 H1162 H 0.76390 0.28491 0.15303
 H1163 H 0.74830 0.21588 0.06483
 H1164 H 0.79309 0.16763 0.09506
 C1165 C 0.47124 0.38516 0.51655
 C1166 C 0.48288 0.38610 0.49604
 C1167 C 0.47967 0.40452 0.48177
 C1168 C 0.46475 0.42184 0.48778
 C1169 C 0.45309 0.42051 0.50837
 C1170 C 0.45637 0.40227 0.52287
 C1171 C 0.47474 0.36593 0.53172
 C1172 C 0.46333 0.36513 0.55236
 C1173 C 0.46692 0.34693 0.56684
 C1174 C 0.48165 0.32948 0.56074
 C1175 C 0.49277 0.33052 0.53982
 C1176 C 0.48949 0.34875 0.52533
 C1177 C 0.44517 0.40083 0.54361
 C1178 C 0.44864 0.38261 0.55813
 C1179 C 0.49750 0.36858 0.49023
 C1180 C 0.50070 0.35019 0.50459
 H1181 H 0.43367 0.41393 0.54870
 H1182 H 0.43972 0.38219 0.57401
 H1183 H 0.50655 0.36908 0.47443
 H1184 H 0.51212 0.33704 0.49946
 H1185 H 0.48865 0.40527 0.46594
 H1186 H 0.44165 0.43375 0.51324
 H1187 H 0.45851 0.34656 0.58299
 H1188 H 0.50384 0.31706 0.53471
 C1189 C -0.03058 0.88246 0.01448
 C1190 C -0.01929 0.88298 -0.00623
 C1191 C -0.02274 0.90113 -0.02081
 C1192 C -0.03753 0.91858 -0.01488
 C1193 C -0.04888 0.91763 0.00590
 C1194 C -0.04536 0.89967 0.02070
 C1195 C -0.02676 0.86356 0.03000
 C1196 C -0.03779 0.86320 0.05086
 C1197 C -0.03389 0.84534 0.06567
 C1198 C -0.01922 0.82779 0.05969
 C1199 C -0.00848 0.82839 0.03856
 C1200 C -0.01208 0.84629 0.02373
 C1201 C -0.05619 0.89866 0.04166
 C1202 C -0.05243 0.88076 0.05651
 C1203 C -0.00474 0.86537 -0.01193
 C1204 C -0.00125 0.84730 0.00277
 H1205 H -0.06761 0.91186 0.04668
 H1206 H -0.06105 0.88067 0.07255
 H1207 H 0.00404 0.86555 -0.02789
 H1208 H 0.01012 0.83407 -0.00228
 H1209 H -0.01399 0.90159 -0.03678
 H1210 H -0.06021 0.93098 0.01072
 H1211 H -0.04200 0.84529 0.08198
 H1212 H 0.00253 0.81485 0.03355
 C1213 C 0.02985 0.61561 0.01533
 C1214 C 0.04633 0.59967 0.02058
 C1215 C 0.05009 0.58177 0.00575
 C1216 C 0.03714 0.57942 -0.01408
 C1217 C 0.02054 0.59565 -0.01889
 C1218 C 0.01700 0.61382 -0.00439
 C1219 C 0.02590 0.63451 0.03081
 C1220 C 0.00966 0.65063 0.02537
 C1221 C 0.00602 0.66862 0.04009
 C1222 C 0.01815 0.67035 0.06043
 C1223 C 0.03433 0.65387 0.06562
 C1224 C 0.03840 0.63605 0.05079
 C1225 C 0.00084 0.63027 -0.00923
 C1226 C -0.00269 0.64842 0.00533
 C1227 C 0.05864 0.60187 0.04065
 C1228 C 0.05467 0.61969 0.05555
 H1229 H -0.00915 0.62912 -0.02444
 H1230 H -0.01529 0.66075 0.00095
 H1231 H 0.07139 0.58966 0.04494
 H1232 H 0.06445 0.62069 0.07089
 H1233 H 0.06287 0.56954 0.00992
 H1234 H 0.01045 0.59437 -0.03403
 H1235 H -0.00612 0.68133 0.03555
 H1236 H 0.04355 0.65470 0.08132
 C1237 C 0.53004 0.11680 0.51577
 C1238 C 0.54506 0.09976 0.52194
 C1239 C 0.54870 0.08182 0.50715
 C1240 C 0.53722 0.08071 0.48641
 C1241 C 0.52220 0.09799 0.48053
 C1242 C 0.51863 0.11611 0.49510
 C1243 C 0.52610 0.13568 0.53128
 C1244 C 0.51118 0.15276 0.52505
 C1245 C 0.50747 0.17065 0.53986
 C1246 C 0.51834 0.17143 0.56095
 C1247 C 0.53326 0.15407 0.56689
 C1248 C 0.53727 0.13622 0.55209
 C1249 C 0.50383 0.13354 0.48944
 C1250 C 0.50022 0.15159 0.50413
 C1251 C 0.55602 0.10095 0.54286
 C1252 C 0.55215 0.11884 0.55770
 H1253 H 0.49496 0.13323 0.47352
 H1254 H 0.48867 0.16468 0.49912
 H1255 H 0.56763 0.08790 0.54784
 H1256 H 0.56088 0.11906 0.57370
 H1257 H 0.56021 0.06860 0.51193
 H1258 H 0.51335 0.09741 0.46460
 H1259 H 0.49627 0.18406 0.53487
 H1260 H 0.54149 0.15427 0.58315
 C1261 C -0.03090 0.11646 0.48591
 C1262 C -0.04602 0.09946 0.47971
 C1263 C -0.04966 0.08144 0.49441
 C1264 C -0.03808 0.08021 0.51508
 C1265 C -0.02294 0.09745 0.52098
 C1266 C -0.01937 0.11566 0.50651
 C1267 C -0.02696 0.13542 0.47049
 C1268 C -0.01192 0.15248 0.47674
 C1269 C -0.00820 0.17044 0.46200
 C1270 C -0.01919 0.17132 0.44098
 C1271 C -0.03422 0.15399 0.43503
 C1272 C -0.03823 0.13607 0.44975
 C1273 C -0.00446 0.13306 0.51219
 C1274 C -0.00085 0.15119 0.49758
 C1275 C -0.05710 0.10075 0.45887
 C1276 C -0.05322 0.11871 0.44411
 H1277 H 0.00450 0.13266 0.52805
 H1278 H 0.01079 0.16426 0.50261
 H1279 H -0.06879 0.08772 0.45387
 H1280 H -0.06204 0.11902 0.42816
 H1281 H -0.06126 0.06825 0.48961
 H1282 H -0.01401 0.09678 0.53686
 H1283 H 0.00309 0.18382 0.46699
 H1284 H -0.04254 0.15425 0.41881
 C1285 C 0.47062 0.61574 0.98406
 C1286 C 0.45630 0.59825 0.97732
 C1287 C 0.45280 0.58007 0.99185
 C1288 C 0.46375 0.57916 1.01288
 C1289 C 0.47804 0.59690 1.01935
 C1290 C 0.48146 0.61528 1.00504
 C1291 C 0.47449 0.63483 0.96877
 C1292 C 0.48875 0.65234 0.97555
 C1293 C 0.49244 0.67040 0.96093
 C1294 C 0.48223 0.67092 0.93951
 C1295 C 0.46795 0.65315 0.93303
 C1296 C 0.46396 0.63512 0.94764
 C1297 C 0.49557 0.63315 1.01125
 C1298 C 0.49910 0.65140 0.99678
 C1299 C 0.44593 0.59921 0.95610
 C1300 C 0.44974 0.61730 0.94148
 H1301 H 0.50398 0.63302 1.02742
 H1302 H 0.51013 0.66483 1.00220
 H1303 H 0.43486 0.58581 0.95069
 H1304 H 0.44150 0.61733 0.92523
 H1305 H 0.44186 0.56649 0.98661
 H1306 H 0.48646 0.59647 1.03551
 H1307 H 0.50312 0.68412 0.96632
 H1308 H 0.46024 0.65315 0.91652
 C1309 C 0.52855 0.88726 0.98397
 C1310 C 0.51366 0.89080 1.00189
 C1311 C 0.51736 0.90883 1.01655
 C1312 C 0.53590 0.92339 1.01350
 C1313 C 0.55066 0.91946 0.99529
 C1314 C 0.54704 0.90148 0.98052
 C1315 C 0.52474 0.86827 0.96853
 C1316 C 0.53963 0.86473 0.95058
 C1317 C 0.53596 0.84659 0.93600
 C1318 C 0.51761 0.83201 0.93936
 C1319 C 0.50281 0.83588 0.95743
 C1320 C 0.50630 0.85398 0.97206
 C1321 C 0.56158 0.89740 0.96236
 C1322 C 0.55793 0.87935 0.94765
 C1323 C 0.49534 0.87618 1.00482
 C1324 C 0.49173 0.85808 0.99017
 H1325 H 0.57592 0.90826 0.95951
 H1326 H 0.56955 0.87680 0.93387
 H1327 H 0.48371 0.87873 1.01859
 H1328 H 0.47743 0.84720 0.99305
 H1329 H 0.50575 0.91141 1.03035
 H1330 H 0.56500 0.93034 0.99251
 H1331 H 0.54756 0.84360 0.92229
 H1332 H 0.48847 0.82495 0.95996
 C1333 C 0.02978 0.38410 0.48513
 C1334 C 0.04643 0.39998 0.48000
 C1335 C 0.05016 0.41793 0.49479
 C1336 C 0.03707 0.42038 0.51447
 C1337 C 0.02030 0.40421 0.51916
 C1338 C 0.01675 0.38600 0.50468
 C1339 C 0.02587 0.36513 0.46968
 C1340 C 0.00945 0.34908 0.47498
 C1341 C 0.00585 0.33103 0.46031
 C1342 C 0.01822 0.32915 0.44016
 C1343 C 0.03458 0.34556 0.43511
 C1344 C 0.03859 0.36346 0.44989
 C1345 C 0.00042 0.36962 0.50939
 C1346 C -0.00310 0.35142 0.49485
 C1347 C 0.05894 0.39765 0.46010
 C1348 C 0.05501 0.37976 0.44525
 H1349 H -0.00971 0.37086 0.52447
 H1350 H -0.01583 0.33914 0.49913
 H1351 H 0.07181 0.40982 0.45592
 H1352 H 0.06496 0.37866 0.43005
 H1353 H 0.06308 0.43011 0.49071
 H1354 H 0.01008 0.40558 0.53418
 H1355 H -0.00645 0.31837 0.46472
 H1356 H 0.04399 0.34461 0.41955
 C1357 C 0.38510 0.51768 0.47225
 C1358 C 0.38537 0.49682 0.48317
 C1359 C 0.40365 0.48241 0.47985
 C1360 C 0.42148 0.48863 0.46554
 C1361 C 0.42083 0.50960 0.45463
 C1362 C 0.40274 0.52423 0.45802
 C1363 C 0.36599 0.53297 0.47581
 C1364 C 0.36584 0.55392 0.46509
 C1365 C 0.34772 0.56848 0.46869
 C1366 C 0.32971 0.56213 0.48274
 C1367 C 0.33012 0.54091 0.49319
 C1368 C 0.34827 0.52634 0.48989
 C1369 C 0.40196 0.54531 0.44752
 C1370 C 0.38385 0.55993 0.45105
 C1371 C 0.36733 0.49079 0.49715
 C1372 C 0.34906 0.50527 0.50041
 H1373 H 0.41548 0.55057 0.43653
 H1374 H 0.38393 0.57605 0.44268
 H1375 H 0.36732 0.47472 0.50564
 H1376 H 0.33549 0.49996 0.51131
 H1377 H 0.40388 0.46630 0.48825
 H1378 H 0.43447 0.51464 0.44366
 H1379 H 0.34782 0.58485 0.46082
 H1380 H 0.31624 0.53563 0.50371
 C1381 C 0.88475 0.01478 -0.03004
 C1382 C 0.88625 -0.00480 -0.01707
 C1383 C 0.90427 -0.01950 -0.02054
 C1384 C 0.92061 -0.01499 -0.03720
 C1385 C 0.91857 0.00473 -0.05022
 C1386 C 0.90084 0.01973 -0.04655
 C1387 C 0.86598 0.03042 -0.02623
 C1388 C 0.86471 0.05022 -0.03890
 C1389 C 0.84699 0.06518 -0.03501
 C1390 C 0.83034 0.06030 -0.01885
 C1391 C 0.83181 0.04015 -0.00651
 C1392 C 0.84969 0.02529 -0.00997
 C1393 C 0.89892 0.03964 -0.05901
 C1394 C 0.88123 0.05469 -0.05517
 C1395 C 0.86966 -0.00932 -0.00088
 C1396 C 0.85163 0.00541 0.00253
 H1397 H 0.91126 0.04369 -0.07177
 H1398 H 0.88044 0.06990 -0.06508
 H1399 H 0.87059 -0.02441 0.00921
 H1400 H 0.83917 0.00126 0.01514
 H1401 H 0.90534 -0.03454 -0.01038
 H1402 H 0.93089 0.00868 -0.06305
 H1403 H 0.84637 0.08074 -0.04438
 H1404 H 0.81896 0.03587 0.00565
 C1405 C 0.61708 0.01698 0.02924
 C1406 C 0.61648 -0.00379 0.01817
 C1407 C 0.59814 -0.01817 0.02166
 C1408 C 0.58057 -0.01198 0.03627
 C1409 C 0.58159 0.00887 0.04740
 C1410 C 0.59974 0.02347 0.04383
 C1411 C 0.63619 0.03229 0.02539
 C1412 C 0.63665 0.05320 0.03620
 C1413 C 0.65472 0.06780 0.03226
 C1414 C 0.67238 0.06156 0.01777
 C1415 C 0.67169 0.04037 0.00726
 C1416 C 0.65358 0.02575 0.01089
 C1417 C 0.60085 0.04448 0.05445
 C1418 C 0.61896 0.05912 0.05065
 C1419 C 0.63421 -0.00976 0.00380
 C1420 C 0.65248 0.00473 0.00028
 H1421 H 0.58757 0.04969 0.06573
 H1422 H 0.61912 0.07520 0.05911
 H1423 H 0.63397 -0.02576 -0.00481
 H1424 H 0.66581 -0.00051 -0.01095
 H1425 H 0.59763 -0.03419 0.01309
 H1426 H 0.56815 0.01388 0.05859
 H1427 H 0.65485 0.08415 0.04020
 H1428 H 0.68532 0.03515 -0.00360
 C1429 C 0.11606 0.51626 0.52842
 C1430 C 0.11579 0.49547 0.51737
 C1431 C 0.09774 0.48076 0.52096
 C1432 C 0.08016 0.48661 0.53569
 C1433 C 0.08079 0.50753 0.54671
 C1434 C 0.09864 0.52246 0.54304
 C1435 C 0.13496 0.53185 0.52461
 C1436 C 0.13511 0.55273 0.53548
 C1437 C 0.15304 0.56755 0.53168
 C1438 C 0.17089 0.56152 0.51732
 C1439 C 0.17047 0.54037 0.50671
 C1440 C 0.15249 0.52555 0.51019
 C1441 C 0.09941 0.54349 0.55365
 C1442 C 0.11731 0.55840 0.54988
 C1443 C 0.13363 0.48978 0.50301
 C1444 C 0.15170 0.50454 0.49953
 H1445 H 0.08606 0.54849 0.56495
 H1446 H 0.11723 0.57447 0.55837
 H1447 H 0.13364 0.47377 0.49442
 H1448 H 0.16513 0.49948 0.48836
 H1449 H 0.09752 0.46468 0.51247
 H1450 H 0.06733 0.51229 0.55800
 H1451 H 0.15294 0.58386 0.53969
 H1452 H 0.18423 0.53532 0.49594
 C1453 C 0.11580 0.48360 -0.02824
 C1454 C 0.11566 0.50438 -0.01715
 C1455 C 0.09764 0.51908 -0.02067
 C1456 C 0.07997 0.51324 -0.03537
 C1457 C 0.08047 0.49234 -0.04642
 C1458 C 0.09828 0.47741 -0.04281
 C1459 C 0.13466 0.46803 -0.02452
 C1460 C 0.13468 0.44716 -0.03542
 C1461 C 0.15258 0.43236 -0.03172
 C1462 C 0.17053 0.43839 -0.01741
 C1463 C 0.17025 0.45952 -0.00676
 C1464 C 0.15230 0.47433 -0.01015
 C1465 C 0.09892 0.45640 -0.05347
 C1466 C 0.11678 0.44150 -0.04978
 C1467 C 0.13360 0.51006 -0.00284
 C1468 C 0.15164 0.49532 0.00055
 H1469 H 0.08548 0.45141 -0.06473
 H1470 H 0.11659 0.42545 -0.05830
 H1471 H 0.13372 0.52606 0.00578
 H1472 H 0.16515 0.50037 0.01169
 H1473 H 0.09753 0.53515 -0.01216
 H1474 H 0.06693 0.48758 -0.05768
 H1475 H 0.15237 0.41606 -0.03974
 H1476 H 0.18409 0.46457 0.00397
 C1477 C 0.61559 0.98503 0.47093
 C1478 C 0.61399 1.00455 0.48399
 C1479 C 0.59587 1.01914 0.48057
 C1480 C 0.57952 1.01460 0.46389
 C1481 C 0.58167 0.99494 0.45078
 C1482 C 0.59951 0.98005 0.45439
 C1483 C 0.63447 0.96948 0.47468
 C1484 C 0.63583 0.94973 0.46192
 C1485 C 0.65364 0.93485 0.46576
 C1486 C 0.67028 0.93976 0.48198
 C1487 C 0.66872 0.95986 0.49439
 C1488 C 0.65075 0.97464 0.49097
 C1489 C 0.60153 0.96019 0.44184
 C1490 C 0.61931 0.94524 0.44562
 C1491 C 0.63058 1.00910 0.50021
 C1492 C 0.64871 0.99446 0.50356
 H1493 H 0.58919 0.95612 0.42905
 H1494 H 0.62018 0.93007 0.43564
 H1495 H 0.62958 1.02414 0.51036
 H1496 H 0.66116 0.99863 0.51620
 H1497 H 0.59472 1.03414 0.49080
 H1498 H 0.56935 0.99096 0.43793
 H1499 H 0.65433 0.91934 0.45633
 H1500 H 0.68156 0.96416 0.50659
 C1501 C 0.88319 0.98448 0.52987
 C1502 C 0.89928 0.97931 0.54632
 C1503 C 0.91721 0.99414 0.55007
 C1504 C 0.91945 1.01394 0.53717
 C1505 C 0.90309 1.01868 0.52058
 C1506 C 0.88488 1.00414 0.51703
 C1507 C 0.86423 0.96899 0.52596
 C1508 C 0.84796 0.97434 0.50974
 C1509 C 0.82992 0.95961 0.50615
 C1510 C 0.82826 0.93938 0.51833
 C1511 C 0.84487 0.93428 0.53448
 C1512 C 0.86277 0.94911 0.53848
 C1513 C 0.86830 1.00889 0.50089
 C1514 C 0.85009 0.99430 0.49738
 C1515 C 0.89716 0.95932 0.55864
 C1516 C 0.87928 0.94442 0.55472
 H1517 H 0.86937 1.02404 0.49091
 H1518 H 0.83765 0.99862 0.48480
 H1519 H 0.90949 0.95509 0.57137
 H1520 H 0.87835 0.92915 0.56452
 H1521 H 0.92954 0.99003 0.56284
 H1522 H 0.90429 1.03378 0.51052
 H1523 H 0.81709 0.96406 0.49402
 H1524 H 0.84410 0.91867 0.54374
 C1525 C 0.38556 0.48157 0.02657
 C1526 C 0.40333 0.47499 0.04061
 C1527 C 0.42142 0.48971 0.04407
 C1528 C 0.42190 0.51082 0.03343
 C1529 C 0.40398 0.51703 0.01922
 C1530 C 0.38572 0.50253 0.01584
 C1531 C 0.36637 0.46627 0.02307
 C1532 C 0.34849 0.47298 0.00924
 C1533 C 0.33023 0.45843 0.00607
 C1534 C 0.32985 0.43716 0.01641
 C1535 C 0.34802 0.43072 0.03020
 C1536 C 0.36627 0.44525 0.03367
 C1537 C 0.36754 0.50862 0.00205
 C1538 C 0.34921 0.49411 -0.00114
 C1539 C 0.40262 0.45382 0.05095
 C1540 C 0.38444 0.43918 0.04748
 H1541 H 0.36745 0.52476 -0.00629
 H1542 H 0.33551 0.49948 -0.01187
 H1543 H 0.41625 0.44852 0.06180
 H1544 H 0.38457 0.42300 0.05575
 H1545 H 0.43513 0.48469 0.05496
 H1546 H 0.40406 0.53325 0.01103
 H1547 H 0.31622 0.46378 -0.00425
 H1548 H 0.34812 0.41431 0.03800
 C1549 C 0.51867 0.47440 0.38690
 C1550 C 0.49818 0.48600 0.38750
 C1551 C 0.48338 0.48232 0.40547
 C1552 C 0.48884 0.46696 0.42264
 C1553 C 0.50947 0.45544 0.42170
 C1554 C 0.52449 0.45917 0.40392
 C1555 C 0.53428 0.47819 0.36802
 C1556 C 0.55480 0.46666 0.36745
 C1557 C 0.56953 0.47024 0.34941
 C1558 C 0.56376 0.48503 0.33184
 C1559 C 0.54307 0.49647 0.33275
 C1560 C 0.52831 0.49317 0.35083
 C1561 C 0.54520 0.44797 0.40279
 C1562 C 0.56012 0.45170 0.38490
 C1563 C 0.49286 0.50097 0.37006
 C1564 C 0.50764 0.50445 0.35201
 H1565 H 0.54991 0.43622 0.41584
 H1566 H 0.57591 0.44270 0.38467
 H1567 H 0.47709 0.51001 0.37032
 H1568 H 0.50285 0.51606 0.33886
 H1569 H 0.46754 0.49122 0.40592
 H1570 H 0.51394 0.44367 0.43484
 H1571 H 0.58553 0.46161 0.34914
 H1572 H 0.53824 0.50762 0.31921
 C1573 C 0.01616 -0.02959 0.88370
 C1574 C -0.00426 -0.01788 0.88440
 C1575 C -0.01900 -0.02148 0.90243
 C1576 C -0.01355 -0.03685 0.91958
 C1577 C 0.00699 -0.04854 0.91852
 C1578 C 0.02195 -0.04488 0.90067
 C1579 C 0.03177 -0.02576 0.86483
 C1580 C 0.05229 -0.03731 0.86424
 C1581 C 0.06714 -0.03349 0.84633
 C1582 C 0.06152 -0.01840 0.82897
 C1583 C 0.04074 -0.00710 0.82983
 C1584 C 0.02588 -0.01062 0.84777
 C1585 C 0.04261 -0.05617 0.89946
 C1586 C 0.05755 -0.05240 0.88159
 C1587 C -0.00955 -0.00283 0.86702
 C1588 C 0.00524 0.00069 0.84898
 H1589 H 0.04730 -0.06799 0.91247
 H1590 H 0.07333 -0.06142 0.88132
 H1591 H -0.02528 0.00628 0.86735
 H1592 H 0.00050 0.01242 0.83591
 H1593 H -0.03478 -0.01247 0.90296
 H1594 H 0.01145 -0.06033 0.93164
 H1595 H 0.08317 -0.04205 0.84608
 H1596 H 0.03600 0.00425 0.81643
 C1597 C 0.01581 0.02766 0.61590
 C1598 C 0.02156 0.04304 0.59898
 C1599 C 0.00651 0.04677 0.58122
 C1600 C -0.01410 0.03510 0.58018
 C1601 C -0.01950 0.01962 0.59727
 C1602 C -0.00466 0.01593 0.61522
 C1603 C 0.03151 0.02379 0.63471
 C1604 C 0.02566 0.00858 0.65174
 C1605 C 0.04059 0.00505 0.66964
 C1606 C 0.06138 0.01642 0.67050
 C1607 C 0.06697 0.03156 0.65317
 C1608 C 0.05206 0.03538 0.63530
 C1609 C -0.00990 0.00080 0.63255
 C1610 C 0.00498 -0.00277 0.65053
 C1611 C 0.04227 0.05435 0.60017
 C1612 C 0.05728 0.05054 0.61799
 H1613 H -0.02566 -0.00833 0.63224
 H1614 H 0.00027 -0.01455 0.66357
 H1615 H 0.04692 0.06623 0.58720
 H1616 H 0.07308 0.05960 0.61824
 H1617 H 0.01093 0.05864 0.56815
 H1618 H -0.03533 0.01061 0.59675
 H1619 H 0.03588 -0.00635 0.68303
 H1620 H 0.08302 0.04017 0.65342
 C1621 C 0.51816 0.52640 0.11329
 C1622 C 0.50508 0.50853 0.10515
 C1623 C 0.49005 0.51232 0.08738
 C1624 C 0.48828 0.53374 0.07754
 C1625 C 0.50168 0.55143 0.08583
 C1626 C 0.51653 0.54788 0.10381
 C1627 C 0.53383 0.52256 0.13212
 C1628 C 0.54662 0.54052 0.14052
 C1629 C 0.56130 0.53683 0.15860
 C1630 C 0.56343 0.51530 0.16804
 C1631 C 0.55064 0.49743 0.15928
 C1632 C 0.53567 0.50100 0.14141
 C1633 C 0.52972 0.56540 0.11255
 C1634 C 0.54446 0.56180 0.13065
 C1635 C 0.50733 0.48722 0.11494
 C1636 C 0.52242 0.48351 0.13272
 H1637 H 0.52859 0.58206 0.10540
 H1638 H 0.55426 0.57578 0.13694
 H1639 H 0.49736 0.47329 0.10879
 H1640 H 0.52366 0.46681 0.13976
 H1641 H 0.47994 0.49856 0.08106
 H1642 H 0.50037 0.56800 0.07850
 H1643 H 0.57126 0.55058 0.16517
 H1644 H 0.55206 0.48088 0.16665
 C1645 C 0.48376 -0.02688 0.11547
 C1646 C 0.47747 -0.04145 0.09802
 C1647 C 0.49225 -0.04487 0.07999
 C1648 C 0.51313 -0.03367 0.07924
 C1649 C 0.51908 -0.01899 0.09687
 C1650 C 0.50451 -0.01563 0.11508
 C1651 C 0.46835 -0.02336 0.13455
 C1652 C 0.47473 -0.00896 0.15211
 C1653 C 0.46006 -0.00573 0.17025
 C1654 C 0.43899 -0.01660 0.17082
 C1655 C 0.43287 -0.03094 0.15297
 C1656 C 0.44753 -0.03446 0.13485
 C1657 C 0.51029 -0.00131 0.13294
 C1658 C 0.49568 0.00192 0.15117
 C1659 C 0.45650 -0.05230 0.09893
 C1660 C 0.44176 -0.04881 0.11701
 H1661 H 0.52626 0.00744 0.13286
 H1662 H 0.50080 0.01308 0.16462
 H1663 H 0.45143 -0.06355 0.08555
 H1664 H 0.42574 -0.05748 0.11704
 H1665 H 0.48741 -0.05612 0.06651
 H1666 H 0.53512 -0.01036 0.09657
 H1667 H 0.46516 0.00504 0.18402
 H1668 H 0.41661 -0.03914 0.15300
 C1669 C 0.98500 0.47042 0.61640
 C1670 C 0.97888 0.45540 0.59926
 C1671 C 0.99372 0.45176 0.58133
 C1672 C 1.01445 0.46321 0.58032
 C1673 C 1.02026 0.47825 0.59768
 C1674 C 1.00565 0.48183 0.61580
 C1675 C 0.96945 0.47432 0.63529
 C1676 C 0.97563 0.48921 0.65250
 C1677 C 0.96079 0.49286 0.67043
 C1678 C 0.93975 0.48195 0.67111
 C1679 C 0.93385 0.46709 0.65361
 C1680 C 0.94868 0.46314 0.63573
 C1681 C 1.01124 0.49662 0.63335
 C1682 C 0.99652 0.50019 0.65142
 C1683 C 0.95799 0.44444 0.60034
 C1684 C 0.94312 0.44829 0.61823
 H1685 H 1.02714 0.50549 0.63311
 H1686 H 1.00149 0.51173 0.66460
 H1687 H 0.95306 0.43283 0.58720
 H1688 H 0.92714 0.43954 0.61838
 H1689 H 0.98899 0.44023 0.56805
 H1690 H 1.03619 0.48708 0.59717
 H1691 H 0.96574 0.50403 0.68394
 H1692 H 0.91762 0.45884 0.65371
 C1693 C 0.98480 0.52970 0.88382
 C1694 C 0.97880 0.54466 0.90099
 C1695 C 0.99368 0.54824 0.91894
 C1696 C 1.01434 0.53677 0.91994
 C1697 C 1.02005 0.52176 0.90255
 C1698 C 1.00538 0.51825 0.88440
 C1699 C 0.96921 0.52587 0.86490
 C1700 C 0.97528 0.51102 0.84765
 C1701 C 0.96040 0.50745 0.82970
 C1702 C 0.93942 0.51839 0.82902
 C1703 C 0.93363 0.53320 0.84656
 C1704 C 0.94850 0.53708 0.86447
 C1705 C 1.01087 0.50352 0.86682
 C1706 C 0.99610 0.50001 0.84872
 C1707 C 0.95797 0.55566 0.89992
 C1708 C 0.94305 0.55189 0.88200
 H1709 H 1.02672 0.49462 0.86705
 H1710 H 1.00099 0.48851 0.83551
 H1711 H 0.95312 0.56723 0.91309
 H1712 H 0.92713 0.56065 0.88187
 H1713 H 0.98903 0.55974 0.93225
 H1714 H 1.03593 0.51291 0.90305
 H1715 H 0.96527 0.49632 0.81616
 H1716 H 0.91744 0.54148 0.84646
 C1717 C 0.48376 0.02885 0.38478
 C1718 C 0.50443 0.01757 0.38524
 C1719 C 0.51915 0.02117 0.40332
 C1720 C 0.51344 0.03613 0.42075
 C1721 C 0.49265 0.04740 0.41992
 C1722 C 0.47770 0.04372 0.40203
 C1723 C 0.46816 0.02502 0.36586
 C1724 C 0.44739 0.03612 0.36550
 C1725 C 0.43256 0.03230 0.34755
 C1726 C 0.43845 0.01765 0.32989
 C1727 C 0.45949 0.00681 0.33052
 C1728 C 0.47433 0.01033 0.34851
 C1729 C 0.45679 0.05457 0.40106
 C1730 C 0.44187 0.05078 0.38314
 C1731 C 0.50999 0.00296 0.36758
 C1732 C 0.49522 -0.00055 0.34949
 H1733 H 0.45190 0.06606 0.41428
 H1734 H 0.42589 0.05946 0.38306
 H1735 H 0.52591 -0.00582 0.36773
 H1736 H 0.50017 -0.01193 0.33620
 H1737 H 0.53513 0.01250 0.40368
 H1738 H 0.48800 0.05886 0.43325
 H1739 H 0.41633 0.04049 0.34749
 H1740 H 0.46444 -0.00417 0.31689
   
