data_POSCAR
  _audit_creation_date              2014-09-24
  _audit_creation_method            'ToBaCCo'
  _symmetry_space_group_name_H-M    'P1'
  _symmetry_Int_Tables_number       1
  _symmetry_cell_setting            triclinic
  loop_
  _symmetry_equiv_pos_as_xyz
 x,y,z
_cell_length_a 67.8160
_cell_length_b 67.6658
_cell_length_c 67.6642
_cell_angle_alpha 90.042000
_cell_angle_beta 90.070200
_cell_angle_gamma 90.030000
loop_
  _atom_site_label
  _atom_site_type_symbol
  _atom_site_fract_x
  _atom_site_fract_y
  _atom_site_fract_z
C1 C 0.30708 0.44320 0.91933
 N2 N 0.32370 0.45121 0.92716
 C3 C 0.33178 0.44335 0.94374
 N4 N 0.32335 0.42734 0.95238
 C5 C 0.30673 0.41933 0.94456
 N6 N 0.29866 0.42719 0.92797
 C7 C 0.44496 0.82974 0.44502
 N8 N 0.45280 0.82209 0.42823
 C9 C 0.44459 0.80586 0.41977
 N10 N 0.42840 0.79741 0.42798
 C11 C 0.42056 0.80505 0.44477
 N12 N 0.42876 0.82129 0.45321
 C13 C 0.94262 0.91940 0.80761
 N14 N 0.95093 0.92740 0.82403
 C15 C 0.94294 0.94377 0.83238
 N16 N 0.92651 0.95203 0.82443
 C17 C 0.91821 0.94404 0.80801
 N18 N 0.92620 0.92767 0.79966
 C19 C 0.44384 -0.08122 0.30518
 N20 N 0.45233 -0.07280 0.32130
 C21 C 0.44434 -0.05630 0.32941
 N22 N 0.42772 -0.04836 0.32155
 C23 C 0.41922 -0.05677 0.30544
 N24 N 0.42722 -0.07326 0.29732
 C25 C 0.80635 0.30588 0.32971
 N26 N 0.82294 0.29782 0.32193
 C27 C 0.83154 0.30618 0.30589
 N28 N 0.82368 0.32273 0.29775
 C29 C 0.80710 0.33080 0.30553
 N30 N 0.79850 0.32243 0.32158
 C31 C -0.19351 0.83233 0.80647
 N32 N -0.17689 0.82437 0.79865
 C33 C -0.16891 0.80786 0.80675
 N34 N -0.17744 0.79942 0.82279
 C35 C -0.19406 0.80737 0.83062
 N36 N -0.20203 0.82388 0.82253
 C37 C 0.94545 0.32842 0.44503
 N38 N 0.92920 0.32005 0.45318
 C39 C 0.92107 0.30372 0.44483
 N40 N 0.92904 0.29592 0.42818
 C41 C 0.94529 0.30429 0.42002
 N42 N 0.95342 0.32062 0.42838
 C43 C 0.44285 0.44319 0.83211
 N44 N 0.42645 0.45142 0.82408
 C45 C 0.41820 0.44338 0.80765
 N46 N 0.42623 0.42697 0.79939
 C47 C 0.44263 0.41875 0.80741
 N48 N 0.45087 0.42679 0.82384
 C49 C 0.80739 0.91960 0.94407
 N50 N 0.82404 0.92757 0.95188
 C51 C 0.83246 0.94360 0.94330
 N52 N 0.82434 0.95155 0.92677
 C53 C 0.80770 0.94358 0.91894
 N54 N 0.79929 0.92755 0.92753
 C55 C 0.30692 0.83144 0.30541
 N56 N 0.32347 0.82331 0.29763
 C57 C 0.33131 0.80677 0.30581
 N58 N 0.32272 0.79849 0.32191
 C59 C 0.30616 0.80662 0.32969
 N60 N 0.29833 0.82316 0.32151
 C61 C 0.80447 0.42102 0.44522
 N62 N 0.82071 0.42942 0.45342
 C63 C 0.82887 0.44570 0.44506
 N64 N 0.82095 0.45343 0.42835
 C65 C 0.80471 0.44504 0.42013
 N66 N 0.79655 0.42876 0.42850
 C67 C 0.94426 0.83174 -0.05669
 N68 N 0.92819 0.82316 -0.04839
 C69 C 0.92033 0.80660 -0.05652
 N70 N 0.92840 0.79874 -0.07310
 C71 C 0.94448 0.80730 -0.08141
 N72 N 0.95234 0.82387 -0.07326
 C73 C 0.30615 0.33064 0.80626
 N74 N 0.29760 0.32232 0.82235
 C75 C 0.30546 0.30578 0.83048
 N76 N 0.32201 0.29769 0.82266
 C77 C 0.33057 0.30600 0.80657
 N78 N 0.32270 0.32254 0.79843
 C79 C 0.16934 0.55633 0.55539
 N80 N 0.17761 0.54779 0.57153
 C81 C 0.19410 0.55569 0.57971
 N82 N 0.20219 0.57228 0.57189
 C83 C 0.19393 0.58082 0.55575
 N84 N 0.17743 0.57291 0.54757
 C85 C 0.58057 0.69507 0.05435
 N86 N 0.57244 0.70352 0.07061
 C87 C 0.55579 0.69581 0.07860
 N88 N 0.54739 0.67951 0.07047
 C89 C 0.55549 0.67106 0.05421
 N90 N 0.57215 0.67877 0.04622
 C91 C 0.69448 0.19557 0.67010
 N92 N 0.67823 0.20372 0.67848
 C93 C 0.67055 0.19579 0.69520
 N94 N 0.67898 0.17956 0.70340
 C95 C 0.69524 0.17142 0.69503
 N96 N 0.70291 0.17935 0.67831
 C97 C 1.07923 0.05286 0.19584
 N98 N 1.07100 0.06928 0.20389
 C99 C 1.05456 0.07727 0.19568
 N100 N 1.04652 0.06900 0.17927
 C101 C 1.05474 0.05259 0.17121
 N102 N 1.07117 0.04460 0.17942
 C103 C 0.05488 0.17000 1.05529
 N104 N 0.07153 0.17777 1.04734
 C105 C 0.07987 0.19409 1.05548
 N106 N 0.07170 0.20251 1.07173
 C107 C 0.05505 0.19476 1.07969
 N108 N 0.04672 0.17843 1.07155
 C109 C 0.17048 0.69554 0.69512
 N110 N 0.17889 0.67934 0.70340
 C111 C 0.19509 0.67109 0.69502
 N112 N 0.20273 0.67889 0.67822
 C113 C 0.19433 0.69509 0.66993
 N114 N 0.17813 0.70334 0.67832
 C115 C 1.19563 0.16952 0.19455
 N116 N 1.20327 0.17745 0.17780
 C117 C 1.19490 0.19375 0.16967
 N118 N 1.17875 0.20198 0.17816
 C119 C 1.17111 0.19406 0.19490
 N120 N 1.17947 0.17775 0.20302
 C121 C 0.66880 1.05704 0.55562
 N122 N 0.67690 1.07360 0.54774
 C123 C 0.69346 1.08147 0.55582
 N124 N 0.70181 1.07290 0.57192
 C125 C 0.69372 1.05634 0.57979
 N126 N 0.67715 1.04848 0.57171
 C127 C 0.55393 0.55359 0.17187
 N128 N 0.54574 0.57003 0.17991
 C129 C 0.55383 0.57832 0.19629
 N130 N 0.57028 0.57034 0.20447
 C131 C 0.57847 0.55390 0.19643
 N132 N 0.57037 0.54562 0.18005
 C133 C 0.67115 0.69572 0.19474
 N134 N 0.67887 0.70367 0.17804
 C135 C 0.69511 0.69550 0.16965
 N136 N 0.70348 0.67923 0.17784
 C137 C 0.69577 0.67128 0.19454
 N138 N 0.67953 0.67945 0.20291
 C139 C 0.17043 0.05429 1.05463
 N140 N 0.17861 0.04577 1.07084
 C141 C 0.19490 0.05383 1.07927
 N142 N 0.20288 0.07056 1.07164
 C143 C 0.19471 0.07909 1.05544
 N144 N 0.17842 0.07102 1.04701
 C145 C 0.58074 0.19382 0.55592
 N146 N 0.57269 0.17722 0.54805
 C147 C 0.55611 0.16937 0.55605
 N148 N 0.54770 0.17800 0.57206
 C149 C 0.55573 0.19461 0.57993
 N150 N 0.57232 0.20245 0.57193
 C151 C 0.07919 0.55539 0.69500
 N152 N 0.07078 0.57162 0.70322
 C153 C 0.05460 0.57986 0.69476
 N154 N 0.04699 0.57201 0.67794
 C155 C 0.05540 0.55579 0.66971
 N156 N 0.07157 0.54755 0.67818
 C157 C 0.67076 0.55546 0.05404
 N158 N 0.67907 0.54708 0.07025
 C159 C 0.69531 0.55535 0.07859
 N160 N 0.70308 0.57214 0.07088
 C161 C 0.69476 0.58053 0.05468
 N162 N 0.67853 0.57225 0.04633
 C163 C 0.05584 0.69462 0.57995
 N164 N 0.07236 0.70252 0.57187
 C165 C 0.08071 0.69397 0.55578
 N166 N 0.07265 0.67737 0.54790
 C167 C 0.05613 0.66945 0.55598
 N168 N 0.04780 0.67802 0.57207
 C169 C 0.55503 1.05505 0.66909
 N170 N 0.54665 1.07128 0.67736
 C171 C 0.55439 1.07920 0.69409
 N172 N 0.57067 1.07103 0.70242
 C173 C 0.57906 1.05480 0.69418
 N174 N 0.57131 1.04689 0.67745
 C175 C 0.44318 0.33148 0.94425
 N176 N 0.45117 0.32363 0.92762
 C177 C 0.44332 0.30702 0.91955
 N178 N 0.42736 0.29838 0.92799
 C179 C 0.41937 0.30621 0.94462
 N180 N 0.42721 0.32283 0.95268
 C181 C 0.94418 0.44310 0.33044
 N182 N 0.92761 0.45115 0.32258
 C183 C 0.91905 0.44279 0.30648
 N184 N 0.92695 0.42625 0.29836
 C185 C 0.94351 0.41818 0.30621
 N186 N 0.95206 0.42655 0.32232
 C187 C 0.30561 0.94526 0.41974
 N188 N 0.29732 0.92908 0.42818
 C189 C 0.30519 0.92135 0.44492
 N190 N 0.32149 0.92965 0.45309
 C191 C 0.32978 0.94584 0.44467
 N192 N 0.32191 0.95357 0.42792
 O193 O 0.19721 0.52583 0.74922
 O194 O 0.20359 0.52315 0.78299
 O195 O 0.24882 0.55290 0.72538
 O196 O 0.28132 0.54709 0.72471
 O197 O 0.22425 0.50124 0.69768
 O198 O 0.22571 0.46676 0.70488
 O199 O 0.30118 0.49914 0.77632
 O200 O 0.29573 0.53283 0.77244
 O201 O 0.25143 0.47458 0.80189
 O202 O 0.21583 0.47596 0.79522
 O203 O 0.27516 0.44860 0.75176
 O204 O 0.27411 0.45531 0.71644
 O205 O 0.30117 0.47535 0.75255
 O206 O 0.29399 0.47747 0.71581
 O207 O 0.25146 0.44839 0.77542
 O208 O 0.21508 0.45579 0.77325
 O209 O 0.27543 0.49799 0.80179
 O210 O 0.26881 0.53381 0.79561
 O211 O 0.19697 0.50167 0.72577
 O212 O 0.20430 0.46657 0.72730
 O213 O 0.24799 0.52496 0.69757
 O214 O 0.28368 0.52181 0.70556
 O215 O 0.22473 0.55283 0.74872
 O216 O 0.22923 0.54505 0.78436
 Zr217 Zr 0.22584 0.52427 0.76109
 O218 O 0.24302 0.50656 0.78002
 Zr219 Zr 0.26031 0.52405 0.72615
 O220 O 0.27922 0.50693 0.74391
 Zr221 Zr 0.22557 0.48941 0.72640
 O222 O 0.24317 0.47042 0.74364
 Zr223 Zr 0.27293 0.51150 0.77393
 O224 O 0.25585 0.53080 0.75623
 Zr225 Zr 0.23845 0.47655 0.77370
 O226 O 0.21928 0.49417 0.75644
 Zr227 Zr 0.27315 0.47688 0.73908
 O228 O 0.25553 0.49399 0.71969
 O229 O 0.23054 0.51927 0.73115
 O230 O 0.26835 0.48145 0.76906
 C231 C 0.18866 0.51573 0.73554
 C232 C 0.23485 0.56132 0.73508
 C233 C 0.23414 0.51504 0.68917
 C234 C 0.30940 0.48491 0.76681
 C235 C 0.26584 0.48387 0.81006
 C236 C 0.26567 0.44023 0.76589
 H237 H 0.23994 0.50978 0.79394
 H238 H 0.24003 0.45654 0.74033
 H239 H 0.22213 0.52773 0.72272
 H240 H 0.29310 0.51028 0.74098
 H241 H 0.28946 0.54538 0.76828
 H242 H 0.29146 0.54417 0.73478
 H243 H 0.21741 0.44660 0.76212
 H244 H 0.19763 0.46764 0.74027
 H245 H 0.28008 0.53318 0.80495
 H246 H 0.21878 0.55524 0.78313
 H247 H 0.26163 0.44775 0.71698
 H248 H 0.23892 0.46706 0.69868
 H249 H 0.19809 0.50960 0.78270
 H250 H 0.21700 0.48810 0.80327
 H251 H 0.28130 0.50969 0.69770
 H252 H 0.30338 0.48834 0.71849
 O253 O 0.24860 0.05190 0.22337
 O254 O 0.28230 0.04561 0.22593
 O255 O 0.22467 0.00005 0.19653
 O256 O 0.22420 -0.03254 0.20244
 O257 O 0.19730 0.02470 0.24821
 O258 O 0.20468 0.02340 0.28266
 O259 O 0.27595 -0.05210 0.25030
 O260 O 0.27186 -0.04679 0.21663
 O261 O 0.30150 -0.00204 0.27458
 O262 O 0.29474 0.03365 0.27304
 O263 O 0.25168 -0.02584 0.30090
 O264 O 0.21637 -0.02499 0.29424
 O265 O 0.25241 -0.05208 0.27422
 O266 O 0.21574 -0.04508 0.27224
 O267 O 0.27522 -0.00196 0.30089
 O268 O 0.27301 0.03437 0.29334
 O269 O 0.30133 -0.02617 0.25123
 O270 O 0.29489 -0.01973 0.21542
 O271 O 0.22531 0.05216 0.24758
 O272 O 0.22700 0.04494 0.28270
 O273 O 0.19709 0.00081 0.22459
 O274 O 0.20515 -0.03488 0.22780
 O275 O 0.24797 0.02422 0.19646
 O276 O 0.28357 0.01985 0.20410
 Zr277 Zr 0.26046 0.02325 0.22496
 O278 O 0.27949 0.00617 0.24265
 Zr279 Zr 0.22565 -0.01140 0.22542
 O280 O 0.24351 -0.03022 0.24257
 Zr281 Zr 0.22604 0.02354 0.25993
 O282 O 0.24339 0.00605 0.27893
 Zr283 Zr 0.27343 -0.02384 0.23785
 O284 O 0.25562 -0.00686 0.21856
 Zr285 Zr 0.27333 0.01087 0.27266
 O286 O 0.25597 0.02993 0.25505
 Zr287 Zr 0.23888 -0.02406 0.27262
 O288 O 0.21939 -0.00654 0.25549
 O289 O 0.23062 0.01846 0.23007
 O290 O 0.26876 -0.01915 0.26791
 C291 C 0.23501 0.06047 0.23349
 C292 C 0.23432 0.01404 0.18804
 C293 C 0.18873 0.01469 0.23450
 C294 C 0.26658 -0.06032 0.26461
 C295 C 0.30963 -0.01646 0.26529
 C296 C 0.26577 -0.01618 0.30918
 H297 H 0.29335 0.00929 0.23937
 H298 H 0.24015 0.00925 0.29280
 H299 H 0.22214 0.02684 0.22163
 H300 H 0.24060 -0.04416 0.23928
 H301 H 0.26760 -0.04059 0.20408
 H302 H 0.23419 -0.04273 0.20546
 H303 H 0.26188 0.03213 0.30249
 H304 H 0.23991 0.05167 0.28157
 H305 H 0.30424 -0.03098 0.21606
 H306 H 0.28228 0.03030 0.19389
 H307 H 0.21695 -0.01247 0.30177
 H308 H 0.19853 0.01013 0.28243
 H309 H 0.28208 0.05118 0.23946
 H310 H 0.30279 0.03236 0.26093
 H311 H 0.19745 -0.03254 0.24000
 H312 H 0.21833 -0.05446 0.26133
 O313 O 0.55292 0.72482 0.24863
 O314 O 0.54655 0.72758 0.28240
 O315 O 0.50133 0.69765 0.22471
 O316 O 0.46886 0.70346 0.22380
 O317 O 0.52587 0.74941 0.19708
 O318 O 0.52435 0.78387 0.20433
 O319 O 0.44889 0.75142 0.27551
 O320 O 0.45436 0.71773 0.27158
 O321 O 0.49866 0.77596 0.30128
 O322 O 0.53421 0.77473 0.29465
 O323 O 0.47485 0.80195 0.25105
 O324 O 0.47593 0.79521 0.21572
 O325 O 0.44887 0.77516 0.25173
 O326 O 0.45608 0.77303 0.21502
 O327 O 0.49851 0.80219 0.27481
 O328 O 0.53491 0.79488 0.27272
 O329 O 0.47469 0.75251 0.30109
 O330 O 0.48129 0.71672 0.29478
 O331 O 0.55313 0.74900 0.22523
 O332 O 0.54575 0.78409 0.22682
 O333 O 0.50221 0.72561 0.19686
 O334 O 0.46649 0.72873 0.20473
 O335 O 0.52539 0.69779 0.24813
 O336 O 0.52097 0.70562 0.28373
 Zr337 Zr 0.52429 0.72637 0.26045
 O338 O 0.50706 0.74405 0.27935
 Zr339 Zr 0.48985 0.72651 0.22540
 O340 O 0.47089 0.74361 0.24313
 Zr341 Zr 0.52452 0.76121 0.22581
 O342 O 0.50687 0.78018 0.24302
 Zr343 Zr 0.47716 0.73907 0.27317
 O344 O 0.49429 0.71980 0.25549
 Zr345 Zr 0.51159 0.77406 0.27308
 O346 O 0.53080 0.75648 0.25586
 Zr347 Zr 0.47690 0.77366 0.23836
 O348 O 0.49457 0.75657 0.21900
 O349 O 0.51960 0.73133 0.23050
 O350 O 0.48169 0.76912 0.26836
 C351 C 0.56146 0.73495 0.23499
 C352 C 0.51526 0.68924 0.23450
 C353 C 0.51604 0.73558 0.18851
 C354 C 0.44065 0.76562 0.26597
 C355 C 0.48430 0.76661 0.30942
 C356 C 0.48431 0.81032 0.26523
 H357 H 0.51015 0.74083 0.29327
 H358 H 0.50999 0.79406 0.23973
 H359 H 0.52803 0.72287 0.22209
 H360 H 0.45702 0.74023 0.24015
 H361 H 0.46063 0.70520 0.26740
 H362 H 0.45874 0.70631 0.23391
 H363 H 0.53256 0.80407 0.26160
 H364 H 0.55241 0.78303 0.23980
 H365 H 0.47003 0.71733 0.30410
 H366 H 0.53145 0.69547 0.28253
 H367 H 0.48838 0.80281 0.21633
 H368 H 0.51114 0.78355 0.19809
 H369 H 0.55209 0.74111 0.28206
 H370 H 0.53314 0.76252 0.30261
 H371 H 0.46888 0.74084 0.19688
 H372 H 0.44673 0.76212 0.21764
 O373 O 0.00093 0.69822 0.72447
 O374 O -0.03276 0.70465 0.72713
 O375 O 0.02490 0.74982 0.69740
 O376 O 0.02546 0.78245 0.70314
 O377 O 0.05245 0.72538 0.74905
 O378 O 0.04526 0.72687 0.78354
 O379 O -0.02593 0.80244 0.75117
 O380 O -0.02203 0.79697 0.71747
 O381 O -0.05150 0.75260 0.77568
 O382 O -0.04487 0.71691 0.77430
 O383 O -0.00144 0.77645 0.80169
 O384 O 0.03385 0.77534 0.79495
 O385 O -0.00220 0.80246 0.77496
 O386 O 0.03444 0.79531 0.77284
 O387 O -0.02510 0.75270 0.80188
 O388 O -0.02298 0.71623 0.79451
 O389 O -0.05138 0.77663 0.75225
 O390 O -0.04519 0.76998 0.71645
 O391 O 0.02437 0.69801 0.74861
 O392 O 0.02287 0.70540 0.78371
 O393 O 0.05259 0.74915 0.72535
 O394 O 0.04467 0.78489 0.72844
 O395 O 0.00154 0.72571 0.69748
 O396 O -0.03403 0.73031 0.70519
 Zr397 Zr -0.01083 0.72692 0.72601
 O398 O -0.02969 0.74416 0.74371
 Zr399 Zr 0.02408 0.76146 0.72622
 O400 O 0.00640 0.78043 0.74336
 Zr401 Zr 0.02379 0.72669 0.76087
 O402 O 0.00662 0.74435 0.77987
 Zr403 Zr -0.02356 0.77413 0.73878
 O404 O -0.00594 0.75698 0.71948
 Zr405 Zr -0.02338 0.73961 0.77373
 O406 O -0.00620 0.72038 0.75611
 Zr407 Zr 0.01121 0.77439 0.77341
 O408 O 0.03053 0.75672 0.75628
 O409 O 0.01904 0.73164 0.73102
 O410 O -0.01871 0.76957 0.76882
 C411 C 0.01458 0.68966 0.73457
 C412 C 0.01521 0.73578 0.68899
 C413 C 0.06096 0.73528 0.73527
 C414 C -0.01643 0.81069 0.76543
 C415 C -0.05963 0.76702 0.76637
 C416 C -0.01556 0.76695 0.81004
 H417 H -0.04358 0.74107 0.74049
 H418 H 0.00992 0.74122 0.79375
 H419 H 0.02745 0.72318 0.72258
 H420 H 0.00934 0.79434 0.74001
 H421 H -0.01789 0.79069 0.70492
 H422 H 0.01554 0.79271 0.70616
 H423 H -0.01186 0.71858 0.80369
 H424 H 0.00991 0.69873 0.78266
 H425 H -0.05448 0.78128 0.71707
 H426 H -0.03282 0.71981 0.69502
 H427 H 0.03322 0.76290 0.80258
 H428 H 0.05146 0.74012 0.78324
 H429 H -0.03246 0.69913 0.74067
 H430 H -0.05294 0.71810 0.76217
 H431 H 0.05246 0.78257 0.74060
 H432 H 0.03179 0.80468 0.76194
 O433 O 0.00163 0.05233 0.02635
 O434 O -0.03208 0.04597 0.02371
 O435 O 0.02552 0.00040 0.05300
 O436 O 0.02615 -0.03213 0.04692
 O437 O 0.05294 0.02532 0.00143
 O438 O 0.04561 0.02407 -0.03303
 O439 O -0.02553 -0.05171 -0.00108
 O440 O -0.02156 -0.04645 0.03265
 O441 O -0.05116 -0.00160 -0.02519
 O442 O -0.04446 0.03405 -0.02352
 O443 O -0.00133 -0.02535 -0.05144
 O444 O 0.03404 -0.02426 -0.04482
 O445 O -0.00188 -0.05156 -0.02490
 O446 O 0.03473 -0.04440 -0.02288
 O447 O -0.02491 -0.00154 -0.05140
 O448 O -0.02263 0.03489 -0.04375
 O449 O -0.05097 -0.02587 -0.00202
 O450 O -0.04467 -0.01947 0.03386
 O451 O 0.02491 0.05269 0.00212
 O452 O 0.02326 0.04555 -0.03301
 O453 O 0.05316 0.00140 0.02499
 O454 O 0.04517 -0.03435 0.02158
 O455 O 0.00222 0.02455 0.05316
 O456 O -0.03336 0.02014 0.04542
 Zr457 Zr -0.01022 0.02364 0.02461
 O458 O -0.02920 0.00655 0.00682
 Zr459 Zr 0.02463 -0.01092 0.02405
 O460 O 0.00683 -0.02975 0.00681
 Zr461 Zr 0.02423 0.02410 -0.01033
 O462 O 0.00694 0.00661 -0.02942
 Zr463 Zr -0.02311 -0.02347 0.01149
 O464 O -0.00536 -0.00649 0.03088
 Zr465 Zr -0.02301 0.01134 -0.02317
 O466 O -0.00571 0.03041 -0.00545
 Zr467 Zr 0.01152 -0.02348 -0.02320
 O468 O 0.03095 -0.00596 -0.00599
 O469 O 0.01962 0.01894 0.01951
 O470 O -0.01838 -0.01867 -0.01852
 C471 C 0.01522 0.06095 0.01625
 C472 C 0.01585 0.01434 0.06156
 C473 C 0.06150 0.01533 0.01514
 C474 C -0.01607 -0.05987 -0.01538
 C475 C -0.05927 -0.01613 -0.01604
 C476 C -0.01548 -0.01578 -0.05967
 H477 H -0.04307 0.00963 0.01009
 H478 H 0.01018 0.00984 -0.04329
 H479 H 0.02807 0.02732 0.02802
 H480 H 0.00977 -0.04368 0.01005
 H481 H -0.01735 -0.04025 0.04523
 H482 H 0.01607 -0.04226 0.04395
 H483 H -0.01161 0.03256 -0.05303
 H484 H 0.01032 0.05223 -0.03189
 H485 H -0.05400 -0.03074 0.03314
 H486 H -0.03210 0.03055 0.05568
 H487 H 0.03333 -0.01179 -0.05240
 H488 H 0.05175 0.01080 -0.03288
 H489 H -0.03184 0.05158 0.01021
 H490 H -0.05246 0.03279 -0.01138
 H491 H 0.05295 -0.03189 0.00946
 H492 H 0.03219 -0.05379 -0.01198
 O493 O -0.02560 0.44728 0.49844
 O494 O -0.02287 0.45373 0.53219
 O495 O -0.05264 0.49901 0.47452
 O496 O -0.04674 0.53155 0.47359
 O497 O -0.00116 0.47421 0.44688
 O498 O 0.03327 0.47581 0.45405
 O499 O 0.00112 0.55154 0.52534
 O500 O -0.03248 0.54609 0.52142
 O501 O 0.02555 0.50166 0.55106
 O502 O 0.02422 0.46602 0.54440
 O503 O 0.05151 0.52543 0.50085
 O504 O 0.04482 0.52439 0.46560
 O505 O 0.02482 0.55152 0.50158
 O506 O 0.02261 0.54419 0.46481
 O507 O 0.05170 0.50174 0.52459
 O508 O 0.04433 0.46529 0.52249
 O509 O 0.00220 0.52571 0.55090
 O510 O -0.03353 0.51913 0.54459
 O511 O -0.00149 0.44699 0.47505
 O512 O 0.03354 0.45441 0.47655
 O513 O -0.02483 0.49798 0.44668
 O514 O -0.02152 0.53382 0.45453
 O515 O -0.05253 0.47489 0.49789
 O516 O -0.04471 0.47941 0.53350
 Zr517 Zr -0.02402 0.47600 0.51024
 O518 O -0.00633 0.49326 0.52914
 Zr519 Zr -0.02381 0.51046 0.47520
 O520 O -0.00671 0.52946 0.49295
 Zr521 Zr 0.01072 0.47567 0.47558
 O522 O 0.02970 0.49336 0.49280
 Zr523 Zr -0.01124 0.52322 0.52298
 O524 O -0.03051 0.50606 0.50529
 Zr525 Zr 0.02361 0.48868 0.52286
 O526 O 0.00601 0.46943 0.50563
 Zr527 Zr 0.02327 0.52340 0.48817
 O528 O 0.00617 0.50569 0.46879
 O529 O -0.01907 0.48065 0.48030
 O530 O 0.01874 0.51864 0.51817
 C531 C -0.01551 0.43867 0.48483
 C532 C -0.06104 0.48504 0.48427
 C533 C -0.01498 0.48404 0.43834
 C534 C 0.01530 0.55978 0.51581
 C535 C 0.01625 0.51607 0.55922
 C536 C 0.05986 0.51594 0.51501
 H537 H -0.00953 0.49019 0.54306
 H538 H 0.04354 0.49021 0.48951
 H539 H -0.02754 0.47218 0.47191
 H540 H -0.01005 0.54337 0.48998
 H541 H -0.04500 0.53982 0.51721
 H542 H -0.04388 0.54168 0.48372
 H543 H 0.05348 0.46760 0.51136
 H544 H 0.03250 0.44775 0.48952
 H545 H -0.03290 0.53042 0.55392
 H546 H -0.05488 0.46892 0.53230
 H547 H 0.05219 0.51179 0.46602
 H548 H 0.03291 0.48901 0.44777
 H549 H -0.00937 0.44819 0.53189
 H550 H 0.01208 0.46715 0.55240
 H551 H -0.00949 0.53134 0.44663
 H552 H 0.01182 0.55365 0.46749
 O553 O 0.44720 -0.00140 0.47418
 O554 O 0.45354 0.03235 0.47682
 O555 O 0.49880 -0.02535 0.44721
 O556 O 0.53131 -0.02596 0.45307
 O557 O 0.47430 -0.05291 0.49885
 O558 O 0.47573 -0.04564 0.53331
 O559 O 0.55112 0.02581 0.50092
 O560 O 0.54567 0.02183 0.46728
 O561 O 0.50130 0.05140 0.52540
 O562 O 0.46571 0.04464 0.52403
 O563 O 0.52516 0.00136 0.55154
 O564 O 0.52425 -0.03391 0.54491
 O565 O 0.55119 0.00214 0.52478
 O566 O 0.54401 -0.03468 0.52267
 O567 O 0.50142 0.02500 0.55168
 O568 O 0.46508 0.02277 0.54426
 O569 O 0.52528 0.05127 0.50200
 O570 O 0.51870 0.04493 0.46620
 O571 O 0.44697 -0.02483 0.49832
 O572 O 0.45433 -0.02318 0.53347
 O573 O 0.49805 -0.05307 0.47518
 O574 O 0.53372 -0.04505 0.47838
 O575 O 0.47470 -0.00200 0.44724
 O576 O 0.47918 0.03366 0.45496
 Zr577 Zr 0.47581 0.01044 0.47577
 O578 O 0.49296 0.02943 0.49348
 Zr579 Zr 0.51032 -0.02448 0.47608
 O580 O 0.52921 -0.00665 0.49320
 Zr581 Zr 0.47557 -0.02416 0.51065
 O582 O 0.49318 -0.00686 0.52966
 Zr583 Zr 0.52287 0.02335 0.48857
 O584 O 0.50582 0.00558 0.46928
 Zr585 Zr 0.48841 0.02317 0.52349
 O586 O 0.46926 0.00586 0.50586
 Zr587 Zr 0.52318 -0.01138 0.52325
 O588 O 0.50556 -0.03085 0.50614
 O589 O 0.48054 -0.01947 0.48080
 O590 O 0.51832 0.01858 0.51863
 C591 C 0.43865 -0.01506 0.48426
 C592 C 0.48481 -0.01567 0.43877
 C593 C 0.48419 -0.06146 0.48507
 C594 C 0.55938 0.01637 0.51518
 C595 C 0.51566 0.05957 0.51608
 C596 C 0.51564 0.01549 0.55988
 H597 H 0.48984 0.04334 0.49024
 H598 H 0.49005 -0.01014 0.54353
 H599 H 0.47213 -0.02793 0.47234
 H600 H 0.54309 -0.00958 0.48986
 H601 H 0.53942 0.01760 0.45474
 H602 H 0.54146 -0.01589 0.45600
 H603 H 0.46739 0.01162 0.55342
 H604 H 0.44762 -0.01025 0.53235
 H605 H 0.52993 0.05429 0.46683
 H606 H 0.46873 0.03240 0.44476
 H607 H 0.51169 -0.03351 0.55230
 H608 H 0.48896 -0.05181 0.53306
 H609 H 0.44803 0.03209 0.49036
 H610 H 0.46688 0.05268 0.51189
 H611 H 0.53135 -0.05288 0.49051
 H612 H 0.55345 -0.03196 0.51188
 O613 O 0.50121 0.55254 0.02560
 O614 O 0.46747 0.54625 0.02297
 O615 O 0.52493 0.50077 0.05269
 O616 O 0.52564 0.46821 0.04685
 O617 O 0.55241 0.52523 0.00084
 O618 O 0.54504 0.52369 -0.03360
 O619 O 0.47379 0.44832 -0.00091
 O620 O 0.47785 0.45386 0.03278
 O621 O 0.44825 0.49823 -0.02542
 O622 O 0.45499 0.53389 -0.02408
 O623 O 0.49805 0.47423 -0.05153
 O624 O 0.53339 0.47524 -0.04493
 O625 O 0.49740 0.44822 -0.02476
 O626 O 0.53405 0.45531 -0.02280
 O627 O 0.47451 0.49808 -0.05168
 O628 O 0.47679 0.53453 -0.04433
 O629 O 0.44842 0.47420 -0.00200
 O630 O 0.45479 0.48090 0.03380
 O631 O 0.52446 0.55264 0.00134
 O632 O 0.52273 0.54521 -0.03374
 O633 O 0.55261 0.50155 0.02464
 O634 O 0.54457 0.46577 0.02152
 O635 O 0.50168 0.52497 0.05263
 O636 O 0.46611 0.52064 0.04493
 Zr637 Zr 0.48927 0.52387 0.02410
 O638 O 0.47025 0.50665 0.00648
 Zr639 Zr 0.52407 0.48924 0.02382
 O640 O 0.50622 0.47029 0.00677
 Zr641 Zr 0.52369 0.52396 -0.01087
 O642 O 0.50636 0.50632 -0.02979
 Zr643 Zr 0.47629 0.47667 0.01142
 O644 O 0.49409 0.49380 0.03063
 Zr645 Zr 0.47642 0.51116 -0.02355
 O646 O 0.49377 0.53036 -0.00602
 Zr647 Zr 0.51088 0.47628 -0.02331
 O648 O 0.53036 0.49392 -0.00627
 O649 O 0.51910 0.51907 0.01903
 O650 O 0.48100 0.48119 -0.01864
 C651 C 0.51481 0.56104 0.01541
 C652 C 0.51526 0.51477 0.06113
 C653 C 0.56097 0.51537 0.01464
 C654 C 0.48320 0.44002 -0.01516
 C655 C 0.44012 0.48382 -0.01611
 C656 C 0.48393 0.48378 -0.05985
 H657 H 0.45638 0.50978 0.00974
 H658 H 0.50959 0.50943 -0.04368
 H659 H 0.52757 0.52750 0.02746
 H660 H 0.50913 0.45638 0.01013
 H661 H 0.48208 0.46016 0.04530
 H662 H 0.51549 0.45811 0.04402
 H663 H 0.48785 0.53215 -0.05355
 H664 H 0.50982 0.55194 -0.03264
 H665 H 0.44544 0.46964 0.03320
 H666 H 0.46740 0.53115 0.05508
 H667 H 0.53275 0.48768 -0.05257
 H668 H 0.55119 0.51043 -0.03331
 H669 H 0.46775 0.55176 0.00943
 H670 H 0.44702 0.53276 -0.01190
 H671 H 0.55235 0.46812 0.00937
 H672 H 0.53147 0.44600 -0.01184
 O673 O 0.75132 0.27532 0.44709
 O674 O 0.71759 0.27265 0.45333
 O675 O 0.77514 0.30238 0.49880
 O676 O 0.77583 0.29660 0.53138
 O677 O 0.80260 0.25051 0.47437
 O678 O 0.79522 0.21609 0.47582
 O679 O 0.72413 0.24897 0.55126
 O680 O 0.72809 0.28257 0.54570
 O681 O 0.69845 0.22437 0.50126
 O682 O 0.70519 0.22560 0.46563
 O683 O 0.74826 0.19821 0.52535
 O684 O 0.78357 0.20473 0.52434
 O685 O 0.74773 0.22509 0.55138
 O686 O 0.78437 0.22694 0.54420
 O687 O 0.72471 0.19804 0.50147
 O688 O 0.72697 0.20533 0.46503
 O689 O 0.69866 0.24778 0.52533
 O690 O 0.70502 0.28356 0.51866
 O691 O 0.77462 0.25110 0.44694
 O692 O 0.77282 0.21597 0.45430
 O693 O 0.80281 0.27432 0.49808
 O694 O 0.79482 0.27128 0.53382
 O695 O 0.75181 0.30232 0.47464
 O696 O 0.71626 0.29463 0.47897
 Zr697 Zr 0.73942 0.27380 0.47572
 O698 O 0.72044 0.25620 0.49292
 Zr699 Zr 0.77428 0.27354 0.51035
 O700 O 0.75646 0.25651 0.52928
 Zr701 Zr 0.77386 0.23883 0.47560
 O702 O 0.75657 0.21993 0.49323
 Zr703 Zr 0.72653 0.26118 0.52290
 O704 O 0.74430 0.28037 0.50579
 Zr705 Zr 0.72662 0.22616 0.48839
 O706 O 0.74392 0.24367 0.46920
 Zr707 Zr 0.76112 0.22642 0.52329
 O708 O 0.78056 0.24344 0.50564
 O709 O 0.76926 0.26872 0.48052
 O710 O 0.73123 0.23110 0.51838
 C711 C 0.76496 0.26520 0.43858
 C712 C 0.76544 0.31082 0.48480
 C713 C 0.81116 0.26430 0.48426
 C714 C 0.73360 0.23477 0.55959
 C715 C 0.69034 0.23371 0.51566
 C716 C 0.73414 0.18988 0.51578
 H717 H 0.70657 0.25946 0.48978
 H718 H 0.75980 0.20603 0.49012
 H719 H 0.77773 0.27715 0.47211
 H720 H 0.75941 0.25989 0.54319
 H721 H 0.73233 0.29508 0.53941
 H722 H 0.76574 0.29375 0.54151
 H723 H 0.73806 0.19614 0.46739
 H724 H 0.75992 0.21713 0.44755
 H725 H 0.69568 0.28298 0.52991
 H726 H 0.71751 0.30477 0.46846
 H727 H 0.78296 0.19713 0.51187
 H728 H 0.80133 0.21632 0.48910
 H729 H 0.71792 0.25912 0.44777
 H730 H 0.69725 0.23781 0.46672
 H731 H 0.80259 0.25912 0.53149
 H732 H 0.78183 0.23791 0.55352
 O733 O 0.80286 0.75185 -0.02621
 O734 O 0.79640 0.71806 -0.02366
 O735 O 0.75135 0.77599 -0.05317
 O736 O 0.71882 0.77666 -0.04738
 O737 O 0.77599 0.80333 -0.00142
 O738 O 0.77447 0.79603 0.03303
 O739 O 0.69883 0.72490 0.00030
 O740 O 0.70430 0.72887 -0.03333
 O741 O 0.74865 0.69908 0.02477
 O742 O 0.78418 0.70570 0.02352
 O743 O 0.72495 0.74920 0.05102
 O744 O 0.72596 0.78446 0.04449
 O745 O 0.69888 0.74857 0.02419
 O746 O 0.70620 0.78533 0.02222
 O747 O 0.74862 0.72548 0.05113
 O748 O 0.78499 0.72760 0.04373
 O749 O 0.72461 0.69931 0.00137
 O750 O 0.73119 0.70569 -0.03441
 O751 O 0.80316 0.77520 -0.00196
 O752 O 0.79582 0.77349 0.03317
 O753 O 0.75224 0.80362 -0.02515
 O754 O 0.71650 0.79574 -0.02200
 O755 O 0.77538 0.75257 -0.05318
 O756 O 0.77075 0.71690 -0.04561
 Zr757 Zr 0.77421 0.74005 -0.02470
 O758 O 0.75701 0.72109 -0.00707
 Zr759 Zr 0.73982 0.77508 -0.02434
 O760 O 0.72088 0.75728 -0.00731
 Zr761 Zr 0.77457 0.77458 0.01031
 O762 O 0.75693 0.75731 0.02922
 Zr763 Zr 0.72711 0.72726 -0.01199
 O764 O 0.74421 0.74501 -0.03121
 Zr765 Zr 0.76160 0.72728 0.02297
 O766 O 0.78080 0.74455 0.00543
 Zr767 Zr 0.72694 0.76196 0.02277
 O768 O 0.74461 0.78139 0.00575
 O769 O 0.76957 0.76996 -0.01956
 O770 O 0.73169 0.73198 0.01809
 C771 C 0.81143 0.76548 -0.01607
 C772 C 0.76533 0.76631 -0.06161
 C773 C 0.76617 0.81192 -0.01523
 C774 C 0.69061 0.73440 0.01453
 C775 C 0.73426 0.69095 0.01542
 C776 C 0.73446 0.73504 0.05934
 H777 H 0.76007 0.70718 -0.01035
 H778 H 0.76008 0.76057 0.04311
 H779 H 0.77801 0.77840 -0.02798
 H780 H 0.70701 0.76026 -0.01066
 H781 H 0.71056 0.73312 -0.04584
 H782 H 0.70863 0.76662 -0.04449
 H783 H 0.78268 0.73870 0.05296
 H784 H 0.80252 0.76055 0.03199
 H785 H 0.71992 0.69636 -0.03382
 H786 H 0.78121 0.71814 -0.05577
 H787 H 0.73854 0.78403 0.05188
 H788 H 0.76129 0.80230 0.03272
 H789 H 0.80198 0.71834 -0.01014
 H790 H 0.78309 0.69779 0.01127
 H791 H 0.71895 0.80358 -0.00988
 H792 H 0.69678 0.78271 0.01136
 O793 O 1.00162 0.19639 0.22409
 O794 O 0.96793 0.20275 0.22666
 O795 O 1.02550 0.24815 0.19710
 O796 O 1.02611 0.28073 0.20295
 O797 O 1.05301 0.22362 0.24881
 O798 O 1.04575 0.22508 0.28328
 O799 O 0.97453 0.30057 0.25079
 O800 O 0.97851 0.29512 0.21711
 O801 O 0.94896 0.25068 0.27521
 O802 O 0.95562 0.21499 0.27377
 O803 O 0.99894 0.27447 0.30141
 O804 O 1.03420 0.27353 0.29474
 O805 O 0.99816 0.30059 0.27468
 O806 O 1.03482 0.29350 0.27266
 O807 O 0.97534 0.25067 0.30150
 O808 O 0.97744 0.21427 0.29403
 O809 O 0.94911 0.27471 0.25179
 O810 O 0.95540 0.26811 0.21601
 O811 O 1.02497 0.19621 0.24830
 O812 O 1.02340 0.20357 0.28338
 O813 O 1.05318 0.24742 0.22514
 O814 O 1.04520 0.28314 0.22829
 O815 O 1.00220 0.22398 0.19710
 O816 O 0.96663 0.22842 0.20477
 Zr817 Zr 0.98980 0.22508 0.22562
 O818 O 0.97086 0.24228 0.24328
 Zr819 Zr 1.02465 0.25969 0.22597
 O820 O 1.00689 0.27861 0.24307
 Zr821 Zr 1.02433 0.22488 0.26057
 O822 O 1.00707 0.24248 0.27953
 Zr823 Zr 0.97696 0.27226 0.23840
 O824 O 0.99466 0.25516 0.21914
 Zr825 Zr 0.97709 0.23770 0.27330
 O826 O 0.99437 0.21852 0.25573
 Zr827 Zr 1.01163 0.27254 0.27314
 O828 O 1.03102 0.25492 0.25604
 O829 O 1.01966 0.22984 0.23070
 O830 O 0.98172 0.26768 0.26846
 C831 C 1.01523 0.18784 0.23424
 C832 C 1.01582 0.23414 0.18864
 C833 C 1.06154 0.23355 0.23506
 C834 C 0.98397 0.30883 0.26508
 C835 C 0.94083 0.26509 0.26589
 C836 C 0.98486 0.26489 0.30973
 H837 H 0.95698 0.23917 0.24001
 H838 H 1.01034 0.23933 0.29341
 H839 H 1.02809 0.22141 0.22226
 H840 H 1.00983 0.29253 0.23975
 H841 H 0.98270 0.28885 0.20457
 H842 H 1.01612 0.29094 0.20591
 H843 H 0.98859 0.21655 0.30319
 H844 H 1.01047 0.19687 0.28230
 H845 H 0.94609 0.27939 0.21661
 H846 H 0.96787 0.21794 0.19458
 H847 H 1.03365 0.26103 0.30228
 H848 H 1.05195 0.23832 0.28299
 H849 H 0.96818 0.19725 0.24021
 H850 H 0.94757 0.21621 0.26164
 H851 H 1.05297 0.28081 0.24046
 H852 H 1.03219 0.30288 0.26176
 O853 O 0.69715 1.02585 0.74872
 O854 O 0.70340 1.02322 0.78253
 O855 O 0.74879 1.05305 0.72507
 O856 O 0.78129 1.04730 0.72443
 O857 O 0.72441 1.00127 0.69738
 O858 O 0.72606 0.96676 0.70466
 O859 O 0.80114 0.99961 0.77626
 O860 O 0.79556 1.03329 0.77224
 O861 O 0.75145 0.97492 0.80175
 O862 O 0.71579 0.97622 0.79495
 O863 O 0.77538 0.94889 0.75179
 O864 O 0.77441 0.95546 0.71645
 O865 O 0.80128 0.97574 0.75257
 O866 O 0.79418 0.97774 0.71577
 O867 O 0.75159 0.94867 0.77537
 O868 O 0.71523 0.95591 0.77310
 O869 O 0.77535 0.99844 0.80164
 O870 O 0.76858 1.03421 0.79534
 O871 O 0.69708 1.00161 0.72535
 O872 O 0.70453 0.96656 0.72700
 O873 O 0.74806 1.02507 0.69729
 O874 O 0.78375 1.02198 0.70535
 O875 O 0.72461 1.05294 0.74831
 O876 O 0.72894 1.04524 0.78398
 Zr877 Zr 0.72574 1.02441 0.76072
 O878 O 0.74294 1.00683 0.77976
 Zr879 Zr 0.76033 1.02422 0.72589
 O880 O 0.77925 1.00721 0.74376
 Zr881 Zr 0.72571 0.98947 0.72612
 O882 O 0.74332 0.97058 0.74348
 Zr883 Zr 0.77285 1.01186 0.77374
 O884 O 0.75574 1.03103 0.75593
 Zr885 Zr 0.73850 0.97678 0.77351
 O886 O 0.71932 0.99427 0.75613
 Zr887 Zr 0.77330 0.97713 0.73900
 O888 O 0.75568 0.99413 0.71949
 O889 O 0.73057 1.01936 0.73082
 O890 O 0.76839 0.98178 0.76895
 C891 C 0.68868 1.01568 0.73504
 C892 C 0.73478 1.06145 0.73472
 C893 C 0.73424 1.01512 0.68888
 C894 C 0.80943 0.98537 0.76683
 C895 C 0.76582 0.98428 0.80991
 C896 C 0.76587 0.94054 0.76592
 H897 H 0.73982 1.01007 0.79367
 H898 H 0.74024 0.95668 0.74021
 H899 H 0.72215 1.02778 0.72235
 H900 H 0.79313 1.01060 0.74086
 H901 H 0.78925 1.04579 0.76803
 H902 H 0.79142 1.04444 0.73454
 H903 H 0.71757 0.94675 0.76195
 H904 H 0.69784 0.96760 0.73995
 H905 H 0.77983 1.03365 0.80471
 H906 H 0.71844 1.05538 0.78269
 H907 H 0.76192 0.94793 0.71693
 H908 H 0.73926 0.96716 0.69845
 H909 H 0.69796 1.00965 0.78225
 H910 H 0.71699 0.98834 0.80305
 H911 H 0.78140 1.00985 0.69750
 H912 H 0.80354 0.98863 0.71846
 O913 O 0.74931 0.55278 0.22393
 O914 O 0.78299 0.54639 0.22664
 O915 O 0.72536 0.50115 0.19674
 O916 O 0.72474 0.46855 0.20245
 O917 O 0.69783 0.52554 0.24850
 O918 O 0.70511 0.52416 0.28293
 O919 O 0.77622 0.44854 0.25043
 O920 O 0.77233 0.45407 0.21677
 O921 O 0.80181 0.49836 0.27515
 O922 O 0.79524 0.53404 0.27380
 O923 O 0.75175 0.47460 0.30106
 O924 O 0.71650 0.47558 0.29422
 O925 O 0.75258 0.44851 0.27425
 O926 O 0.71593 0.45563 0.27210
 O927 O 0.77537 0.49839 0.30133
 O928 O 0.77334 0.53481 0.29391
 O929 O 0.80168 0.47437 0.25166
 O930 O 0.79547 0.48106 0.21586
 O931 O 0.72589 0.55296 0.24802
 O932 O 0.72750 0.54559 0.28313
 O933 O 0.69765 0.50180 0.22473
 O934 O 0.70563 0.46608 0.22771
 O935 O 0.74873 0.52526 0.19689
 O936 O 0.78428 0.52073 0.20468
 Zr937 Zr 0.76109 0.52409 0.22545
 O938 O 0.77998 0.50685 0.24314
 Zr939 Zr 0.72618 0.48954 0.22556
 O940 O 0.74390 0.47056 0.24267
 Zr941 Zr 0.72653 0.52430 0.26027
 O942 O 0.74372 0.50663 0.27925
 Zr943 Zr 0.77386 0.47688 0.23814
 O944 O 0.75620 0.49402 0.21886
 Zr945 Zr 0.77371 0.51138 0.27315
 O946 O 0.75650 0.53061 0.25556
 Zr947 Zr 0.73914 0.47658 0.27273
 O948 O 0.71979 0.49427 0.25563
 O949 O 0.73122 0.51936 0.23040
 O950 O 0.76905 0.48141 0.26820
 C951 C 0.73567 0.56133 0.23401
 C952 C 0.73508 0.51516 0.18836
 C953 C 0.68927 0.51562 0.23473
 C954 C 0.76676 0.44028 0.26466
 C955 C 0.80994 0.48395 0.26583
 C956 C 0.76581 0.48417 0.30948
 H957 H 0.79387 0.50994 0.23994
 H958 H 0.74042 0.50976 0.29312
 H959 H 0.72278 0.52780 0.22196
 H960 H 0.74096 0.45665 0.23929
 H961 H 0.76817 0.46036 0.20423
 H962 H 0.73475 0.45836 0.20539
 H963 H 0.76217 0.53253 0.30303
 H964 H 0.74042 0.55233 0.28203
 H965 H 0.80477 0.46977 0.21647
 H966 H 0.78308 0.53123 0.19452
 H967 H 0.71710 0.48804 0.30185
 H968 H 0.69893 0.51090 0.28267
 H969 H 0.78272 0.55188 0.24020
 H970 H 0.80326 0.53287 0.26166
 H971 H 0.69787 0.46837 0.23988
 H972 H 0.71858 0.44627 0.26119
 O973 O 0.55220 0.22433 0.74907
 O974 O 0.54587 0.22686 0.78286
 O975 O 0.50055 0.19725 0.72508
 O976 O 0.46804 0.20303 0.72451
 O977 O 0.52498 0.24901 0.69763
 O978 O 0.52351 0.28345 0.70494
 O979 O 0.44824 0.25088 0.77627
 O980 O 0.45373 0.21719 0.77233
 O981 O 0.49815 0.27540 0.80193
 O982 O 0.53367 0.27407 0.79524
 O983 O 0.47417 0.30145 0.75193
 O984 O 0.47518 0.29483 0.71654
 O985 O 0.44819 0.27468 0.75255
 O986 O 0.45529 0.27270 0.71585
 O987 O 0.49796 0.30162 0.77557
 O988 O 0.53437 0.29424 0.77330
 O989 O 0.47409 0.25203 0.80177
 O990 O 0.48070 0.21621 0.79548
 O991 O 0.55234 0.24856 0.72572
 O992 O 0.54496 0.28363 0.72736
 O993 O 0.50127 0.22526 0.69742
 O994 O 0.46559 0.22836 0.70544
 O995 O 0.52472 0.19728 0.74840
 O996 O 0.52024 0.20493 0.78410
 Zr997 Zr 0.52358 0.22580 0.76093
 O998 O 0.50645 0.24346 0.77994
 Zr999 Zr 0.48902 0.22609 0.72601
 O1000 O 0.47015 0.24316 0.74385
 Zr1001 Zr 0.52373 0.26076 0.72639
 O1002 O 0.50617 0.27970 0.74370
 Zr1003 Zr 0.47651 0.23854 0.77386
 O1004 O 0.49356 0.21928 0.75607
 Zr1005 Zr 0.51099 0.27349 0.77372
 O1006 O 0.53012 0.25592 0.75640
 Zr1007 Zr 0.47618 0.27322 0.73912
 O1008 O 0.49376 0.25616 0.71966
 O1009 O 0.51880 0.23088 0.73102
 O1010 O 0.48108 0.26860 0.76909
 C1011 C 0.56071 0.23450 0.73544
 C1012 C 0.51457 0.18882 0.73472
 C1013 C 0.51510 0.23522 0.68906
 C1014 C 0.43998 0.26510 0.76677
 C1015 C 0.48374 0.26613 0.81007
 C1016 C 0.48370 0.30978 0.76609
 H1017 H 0.50957 0.24022 0.79384
 H1018 H 0.50929 0.29359 0.74044
 H1019 H 0.52721 0.22246 0.72255
 H1020 H 0.45627 0.23980 0.74090
 H1021 H 0.45999 0.20466 0.76811
 H1022 H 0.45793 0.20592 0.73461
 H1023 H 0.53194 0.30353 0.76228
 H1024 H 0.55168 0.28255 0.74031
 H1025 H 0.46947 0.21684 0.80483
 H1026 H 0.53070 0.19476 0.78282
 H1027 H 0.48761 0.30246 0.71718
 H1028 H 0.51027 0.28318 0.69877
 H1029 H 0.55138 0.24041 0.78262
 H1030 H 0.53257 0.26188 0.80321
 H1031 H 0.46795 0.24049 0.69761
 H1032 H 0.44597 0.26175 0.71843
 O1033 O 0.27557 0.80303 0.49873
 O1034 O 0.27290 0.79667 0.53249
 O1035 O 0.30250 0.75124 0.47486
 O1036 O 0.29660 0.71868 0.47413
 O1037 O 0.25105 0.77595 0.44715
 O1038 O 0.21662 0.77444 0.45428
 O1039 O 0.24875 0.69888 0.52571
 O1040 O 0.28235 0.70430 0.52188
 O1041 O 0.22440 0.74890 0.55135
 O1042 O 0.22578 0.78453 0.54462
 O1043 O 0.19836 0.72497 0.50119
 O1044 O 0.20500 0.72597 0.46589
 O1045 O 0.22505 0.69887 0.50189
 O1046 O 0.22714 0.70610 0.46516
 O1047 O 0.19822 0.74875 0.52487
 O1048 O 0.20563 0.78520 0.52268
 O1049 O 0.24768 0.72478 0.55125
 O1050 O 0.28342 0.73131 0.54503
 O1051 O 0.25145 0.80328 0.47528
 O1052 O 0.21642 0.79593 0.47673
 O1053 O 0.27466 0.75213 0.44703
 O1054 O 0.27137 0.71634 0.45496
 O1055 O 0.30246 0.77542 0.49820
 O1056 O 0.29470 0.77096 0.53383
 Zr1057 Zr 0.27397 0.77435 0.51056
 O1058 O 0.25626 0.75718 0.52947
 Zr1059 Zr 0.27368 0.73977 0.47559
 O1060 O 0.25655 0.72086 0.49334
 Zr1061 Zr 0.23919 0.77462 0.47585
 O1062 O 0.22020 0.75702 0.49307
 Zr1063 Zr 0.26112 0.72719 0.52336
 O1064 O 0.28041 0.74426 0.50568
 Zr1065 Zr 0.22633 0.76179 0.52313
 O1066 O 0.24395 0.78095 0.50589
 Zr1067 Zr 0.22658 0.72696 0.48850
 O1068 O 0.24370 0.74458 0.46911
 O1069 O 0.26898 0.76961 0.48062
 O1070 O 0.23115 0.73180 0.51849
 C1071 C 0.26549 0.81161 0.48507
 C1072 C 0.31093 0.76525 0.48457
 C1073 C 0.26483 0.76605 0.43865
 C1074 C 0.23458 0.69062 0.51614
 C1075 C 0.23366 0.73449 0.55954
 C1076 C 0.19005 0.73450 0.51533
 H1077 H 0.25949 0.76029 0.54339
 H1078 H 0.20636 0.76018 0.48976
 H1079 H 0.27744 0.77804 0.47221
 H1080 H 0.25988 0.70695 0.49039
 H1081 H 0.29487 0.71055 0.51770
 H1082 H 0.29367 0.70853 0.48420
 H1083 H 0.19644 0.78284 0.51156
 H1084 H 0.21746 0.80261 0.48971
 H1085 H 0.28276 0.72005 0.55437
 H1086 H 0.30489 0.78142 0.53262
 H1087 H 0.19758 0.73854 0.46636
 H1088 H 0.21693 0.76120 0.44805
 H1089 H 0.25941 0.80223 0.53217
 H1090 H 0.23791 0.78338 0.55266
 H1091 H 0.25932 0.71878 0.44706
 H1092 H 0.23798 0.69669 0.46781
 O1093 O 0.27557 0.30210 0.99979
 O1094 O 0.27280 0.29564 1.03360
 O1095 O 0.30248 0.25054 0.97573
 O1096 O 0.29671 0.21791 0.97511
 O1097 O 0.25095 0.27509 0.94817
 O1098 O 0.21654 0.27363 0.95538
 O1099 O 0.24883 0.19783 1.02648
 O1100 O 0.28241 0.20332 1.02268
 O1101 O 0.22441 0.24775 1.05231
 O1102 O 0.22575 0.28338 1.04573
 O1103 O 0.19837 0.22401 1.00205
 O1104 O 0.20509 0.22512 0.96672
 O1105 O 0.22510 0.19788 1.00270
 O1106 O 0.22713 0.20519 0.96604
 O1107 O 0.19820 0.24775 1.02578
 O1108 O 0.20565 0.28417 1.02378
 O1109 O 0.24773 0.22367 1.05212
 O1110 O 0.28345 0.23025 1.04592
 O1111 O 0.25148 0.30238 0.97631
 O1112 O 0.21642 0.29507 0.97789
 O1113 O 0.27460 0.25131 0.94798
 O1114 O 0.27147 0.21555 0.95582
 O1115 O 0.30242 0.27458 0.99922
 O1116 O 0.29470 0.26997 1.03484
 Zr1117 Zr 0.27394 0.27340 1.01159
 O1118 O 0.25627 0.25614 1.03044
 Zr1119 Zr 0.27370 0.23893 0.97652
 O1120 O 0.25659 0.21994 0.99420
 Zr1121 Zr 0.23916 0.27374 0.97689
 O1122 O 0.22020 0.25607 0.99406
 Zr1123 Zr 0.26115 0.22617 1.02424
 O1124 O 0.28043 0.24333 1.00662
 Zr1125 Zr 0.22633 0.26074 1.02413
 O1126 O 0.24392 0.27999 1.00695
 Zr1127 Zr 0.22660 0.22602 0.98939
 O1128 O 0.24371 0.24372 0.97007
 O1129 O 0.26895 0.26874 0.98164
 O1130 O 0.23117 0.23077 1.01940
 C1131 C 0.26554 0.31068 0.98610
 C1132 C 0.31087 0.26454 0.98549
 C1133 C 0.26471 0.26521 0.93963
 C1134 C 0.23466 0.18958 1.01689
 C1135 C 0.23370 0.23333 1.06045
 C1136 C 0.19003 0.23355 1.01618
 H1137 H 0.25949 0.25921 1.04437
 H1138 H 0.20636 0.25923 0.99075
 H1139 H 0.27738 0.27718 0.97323
 H1140 H 0.25992 0.20604 0.99120
 H1141 H 0.29492 0.20959 1.01851
 H1142 H 0.29367 0.20762 0.98500
 H1143 H 0.19652 0.28191 1.01259
 H1144 H 0.21754 0.30177 0.99085
 H1145 H 0.28281 0.21895 1.05522
 H1146 H 0.30484 0.28049 1.03367
 H1147 H 0.19755 0.23761 0.96733
 H1148 H 0.21683 0.26041 0.94912
 H1149 H 0.25934 0.30127 1.03320
 H1150 H 0.23794 0.28227 1.05370
 H1151 H 0.25935 0.21791 0.94801
 H1152 H 0.23805 0.19585 0.96860
 C1153 C 0.28474 0.38263 0.78462
 C1154 C 0.26874 0.39177 0.79393
 C1155 C 0.26228 0.41034 0.78760
 C1156 C 0.29836 0.34865 0.79825
 C1157 C 0.28768 0.41058 0.76241
 C1158 C 0.29410 0.39201 0.76878
 C1159 C 0.29203 0.36402 0.79186
 C1160 C 0.27177 0.42005 0.77186
 H1161 H 0.26144 0.38467 0.80626
 H1162 H 0.25004 0.41718 0.79526
 H1163 H 0.29537 0.41762 0.75030
 H1164 H 0.30655 0.38509 0.76152
 C1165 C 0.28588 -0.11769 0.28386
 C1166 C 0.26974 -0.10860 0.29297
 C1167 C 0.26322 -0.09011 0.28648
 C1168 C 0.29955 -0.15155 0.29775
 C1169 C 0.28883 -0.08984 0.26151
 C1170 C 0.29532 -0.10833 0.26804
 C1171 C 0.29320 -0.13623 0.29124
 C1172 C 0.27278 -0.08042 0.27076
 H1173 H 0.26237 -0.11568 0.30527
 H1174 H 0.25086 -0.08331 0.29398
 H1175 H 0.29659 -0.08282 0.24943
 H1176 H 0.30788 -0.11521 0.26093
 C1177 C 0.78519 0.88315 0.78506
 C1178 C 0.79454 0.89248 0.76918
 C1179 C 0.78803 0.91097 0.76267
 C1180 C 0.79899 0.84932 0.79890
 C1181 C 0.76257 0.91075 0.78780
 C1182 C 0.76912 0.89226 0.79426
 C1183 C 0.79257 0.86462 0.79243
 C1184 C 0.77205 0.92042 0.77202
 H1185 H 0.80704 0.88558 0.76199
 H1186 H 0.79572 0.91797 0.75053
 H1187 H 0.75028 0.91758 0.79538
 H1188 H 0.76182 0.88521 0.80662
 C1189 C 0.46511 0.86788 0.28398
 C1190 C 0.45578 0.85848 0.26809
 C1191 C 0.46225 0.83993 0.26172
 C1192 C 0.45133 0.90178 0.29764
 C1193 C 0.48763 0.84023 0.28699
 C1194 C 0.48112 0.85878 0.29332
 C1195 C 0.45775 0.88645 0.29123
 C1196 C 0.47816 0.83049 0.27120
 H1197 H 0.44332 0.86537 0.26080
 H1198 H 0.45458 0.83287 0.24957
 H1199 H 0.49988 0.83341 0.29467
 H1200 H 0.48840 0.86590 0.30568
 C1201 C -0.03567 0.86795 0.78502
 C1202 C -0.01938 0.85891 0.79393
 C1203 C -0.01286 0.84048 0.78729
 C1204 C -0.04945 0.90159 0.79930
 C1205 C -0.03876 0.84017 0.76256
 C1206 C -0.04525 0.85861 0.76924
 C1207 C -0.04304 0.88638 0.79262
 C1208 C -0.02257 0.83079 0.77163
 H1209 H -0.01190 0.86598 0.80620
 H1210 H -0.00039 0.83370 0.79466
 H1211 H -0.04664 0.83314 0.75053
 H1212 H -0.05793 0.86545 0.76229
 C1213 C -0.03497 -0.11731 -0.03496
 C1214 C -0.04458 -0.10803 -0.01919
 C1215 C -0.03822 -0.08952 -0.01254
 C1216 C -0.04840 -0.15122 -0.04903
 C1217 C -0.01242 -0.08960 -0.03732
 C1218 C -0.01881 -0.10811 -0.04392
 C1219 C -0.04214 -0.13588 -0.04246
 C1220 C -0.02214 -0.07999 -0.02164
 H1221 H -0.05715 -0.11499 -0.01220
 H1222 H -0.04610 -0.08255 -0.00050
 H1223 H -0.00004 -0.08272 -0.04470
 H1224 H -0.01131 -0.11513 -0.05618
 C1225 C -0.03313 0.38028 0.46707
 C1226 C -0.01702 0.38943 0.45799
 C1227 C -0.01094 0.40821 0.46411
 C1228 C -0.04662 0.34630 0.45323
 C1229 C -0.03686 0.40857 0.48875
 C1230 C -0.04291 0.38980 0.48259
 C1231 C -0.04029 0.36163 0.45975
 C1232 C -0.02094 0.41813 0.47941
 H1233 H -0.00940 0.38223 0.44591
 H1234 H 0.00135 0.41509 0.45656
 H1235 H -0.04492 0.41575 0.50054
 H1236 H -0.05545 0.38287 0.48967
 C1237 C 0.46627 -0.11966 0.46702
 C1238 C 0.45661 -0.11022 0.48266
 C1239 C 0.46277 -0.09152 0.48894
 C1240 C 0.45255 -0.15343 0.45290
 C1241 C 0.48859 -0.09182 0.46419
 C1242 C 0.48240 -0.11052 0.45795
 C1243 C 0.45898 -0.13820 0.45956
 C1244 C 0.47869 -0.08196 0.47959
 H1245 H 0.44406 -0.11714 0.48974
 H1246 H 0.45478 -0.08438 0.50080
 H1247 H 0.50087 -0.08494 0.45664
 H1248 H 0.48994 -0.11767 0.44578
 C1249 C 0.46406 0.38252 -0.03430
 C1250 C 0.48026 0.39158 -0.04332
 C1251 C 0.48673 0.41011 -0.03686
 C1252 C 0.45051 0.34855 -0.04815
 C1253 C 0.46093 0.41049 -0.01210
 C1254 C 0.45449 0.39195 -0.01861
 C1255 C 0.45681 0.36392 -0.04167
 C1256 C 0.47705 0.41987 -0.02125
 H1257 H 0.48774 0.38443 -0.05553
 H1258 H 0.49915 0.41688 -0.04429
 H1259 H 0.45307 0.41758 -0.00011
 H1260 H 0.44188 0.38510 -0.01157
 C1261 C 0.78303 0.36921 0.46719
 C1262 C 0.76715 0.35991 0.45781
 C1263 C 0.76107 0.34113 0.46388
 C1264 C 0.79653 0.40317 0.45341
 C1265 C 0.78654 0.34106 0.48906
 C1266 C 0.79259 0.35985 0.48294
 C1267 C 0.79020 0.38786 0.45992
 C1268 C 0.77086 0.33136 0.47943
 H1269 H 0.75970 0.36700 0.44555
 H1270 H 0.74897 0.33414 0.45611
 H1271 H 0.79444 0.33399 0.50104
 H1272 H 0.80496 0.36689 0.49025
 C1273 C 0.78504 0.86969 -0.03353
 C1274 C 0.76885 0.86070 -0.04270
 C1275 C 0.76231 0.84217 -0.03636
 C1276 C 0.79949 0.90301 -0.04791
 C1277 C 0.78788 0.84176 -0.01129
 C1278 C 0.79439 0.86030 -0.01767
 C1279 C 0.79274 0.88799 -0.04113
 C1280 C 0.77192 0.83234 -0.02074
 H1281 H 0.76155 0.86782 -0.05504
 H1282 H 0.75001 0.83538 -0.04400
 H1283 H 0.79565 0.83464 0.00074
 H1284 H 0.80698 0.86710 -0.01051
 C1285 C 0.78345 0.28350 0.38070
 C1286 C 0.76770 0.29305 0.39000
 C1287 C 0.76127 0.28673 0.40858
 C1288 C 0.79785 0.29763 0.34727
 C1289 C 0.78609 0.26096 0.40841
 C1290 C 0.79249 0.26732 0.38984
 C1291 C 0.79108 0.29100 0.36234
 C1292 C 0.77057 0.27077 0.41814
 H1293 H 0.76065 0.30564 0.38308
 H1294 H 0.74931 0.29465 0.41561
 H1295 H 0.79362 0.24866 0.41532
 H1296 H 0.80475 0.25987 0.38279
 C1297 C 0.78365 0.78505 -0.11941
 C1298 C 0.79294 0.76902 -0.11028
 C1299 C 0.78660 0.76251 -0.09174
 C1300 C 0.79796 0.79947 -0.15276
 C1301 C 0.76130 0.78782 -0.09161
 C1302 C 0.76768 0.79429 -0.11015
 C1303 C 0.79122 0.79272 -0.13773
 C1304 C 0.77087 0.77201 -0.08204
 H1305 H 0.80536 0.76181 -0.11729
 H1306 H 0.79433 0.75033 -0.08483
 H1307 H 0.74918 0.79551 -0.08459
 H1308 H 0.76043 0.80677 -0.11706
 C1309 C 0.28524 0.46455 0.86738
 C1310 C 0.26919 0.45531 0.85822
 C1311 C 0.26263 0.46179 0.83973
 C1312 C 0.29905 0.45097 0.90132
 C1313 C 0.28808 0.48697 0.83960
 C1314 C 0.29459 0.48045 0.85808
 C1315 C 0.29260 0.45727 0.88596
 C1316 C 0.27209 0.47762 0.83012
 H1317 H 0.26189 0.44293 0.86526
 H1318 H 0.25033 0.45421 0.83286
 H1319 H 0.29575 0.49915 0.83264
 H1320 H 0.30709 0.48767 0.86501
 C1321 C 0.28446 -0.03427 0.36715
 C1322 C 0.29366 -0.01832 0.35780
 C1323 C 0.28738 -0.01221 0.33909
 C1324 C 0.29785 -0.04719 0.40151
 C1325 C 0.26245 -0.03790 0.33910
 C1326 C 0.26877 -0.04397 0.35781
 C1327 C 0.29160 -0.04115 0.38596
 C1328 C 0.27177 -0.02202 0.32944
 H1329 H 0.30587 -0.01075 0.36486
 H1330 H 0.29494 0.00003 0.33210
 H1331 H 0.25044 -0.04583 0.33211
 H1332 H 0.26159 -0.05639 0.36489
 C1333 C -0.03501 -0.03491 -0.11704
 C1334 C -0.01909 -0.04433 -0.10785
 C1335 C -0.01244 -0.03785 -0.08938
 C1336 C -0.04925 -0.04872 -0.15072
 C1337 C -0.03747 -0.01228 -0.08936
 C1338 C -0.04408 -0.01879 -0.10782
 C1339 C -0.04259 -0.04229 -0.13549
 C1340 C -0.02167 -0.02185 -0.07982
 H1341 H -0.01201 -0.05687 -0.11483
 H1342 H -0.00029 -0.04561 -0.08247
 H1343 H -0.04496 0.00004 -0.08243
 H1344 H -0.05647 -0.01144 -0.11477
 C1345 C -0.03344 0.46525 0.38052
 C1346 C -0.04255 0.48144 0.38957
 C1347 C -0.03617 0.48795 0.40812
 C1348 C -0.04781 0.45093 0.34710
 C1349 C -0.01120 0.46232 0.40845
 C1350 C -0.01762 0.45585 0.38990
 C1351 C -0.04104 0.45762 0.36217
 C1352 C -0.02058 0.47829 0.41793
 H1353 H -0.05485 0.48879 0.38248
 H1354 H -0.04375 0.50026 0.41496
 H1355 H 0.00081 0.45451 0.41555
 H1356 H -0.01051 0.44325 0.38305
 C1357 C 0.46681 -0.03392 0.38065
 C1358 C 0.45748 -0.01795 0.38987
 C1359 C 0.46371 -0.01162 0.40852
 C1360 C 0.45270 -0.04803 0.34705
 C1361 C 0.48896 -0.03697 0.40864
 C1362 C 0.48270 -0.04327 0.38997
 C1363 C 0.45936 -0.04141 0.36220
 C1364 C 0.47936 -0.02124 0.41827
 H1365 H 0.44512 -0.01066 0.38281
 H1366 H 0.45595 0.00051 0.41548
 H1367 H 0.50102 -0.04474 0.41569
 H1368 H 0.48997 -0.05570 0.38300
 C1369 C 0.46464 0.46455 -0.11724
 C1370 C 0.45557 0.48071 -0.10812
 C1371 C 0.46209 0.48724 -0.08963
 C1372 C 0.45058 0.45072 -0.15097
 C1373 C 0.48704 0.46158 -0.08945
 C1374 C 0.48047 0.45509 -0.10794
 C1375 C 0.45716 0.45716 -0.13572
 C1376 C 0.47781 0.47764 -0.07998
 H1377 H 0.44325 0.48809 -0.11516
 H1378 H 0.45460 0.49960 -0.08278
 H1379 H 0.49913 0.45381 -0.08245
 H1380 H 0.48755 0.44251 -0.11485
 C1381 C 0.46554 0.78529 0.36715
 C1382 C 0.48149 0.79464 0.35796
 C1383 C 0.48780 0.78840 0.33931
 C1384 C 0.45231 0.79835 0.40152
 C1385 C 0.46230 0.76328 0.33906
 C1386 C 0.45603 0.76955 0.35771
 C1387 C 0.45850 0.79228 0.38596
 C1388 C 0.47820 0.77271 0.32956
 H1389 H 0.48891 0.80690 0.36512
 H1390 H 0.50004 0.79604 0.33245
 H1391 H 0.45453 0.75119 0.33200
 H1392 H 0.44362 0.76226 0.36466
 C1393 C -0.03434 0.78621 0.86758
 C1394 C -0.04359 0.77012 0.85846
 C1395 C -0.03725 0.76360 0.83992
 C1396 C -0.04798 0.79991 0.90153
 C1397 C -0.01215 0.78911 0.83966
 C1398 C -0.01853 0.79560 0.85821
 C1399 C -0.04158 0.79355 0.88618
 C1400 C -0.02154 0.77312 0.83021
 H1401 H -0.05589 0.76278 0.86556
 H1402 H -0.04487 0.75128 0.83309
 H1403 H -0.00006 0.79684 0.83262
 H1404 H -0.01130 0.80812 0.86511
 C1405 C 0.38322 0.78480 0.28478
 C1406 C 0.39258 0.76913 0.29447
 C1407 C 0.41109 0.76261 0.28814
 C1408 C 0.34931 0.79869 0.29813
 C1409 C 0.41083 0.78730 0.26220
 C1410 C 0.39233 0.79378 0.26856
 C1411 C 0.36465 0.79219 0.29193
 C1412 C 0.42053 0.77172 0.27201
 H1413 H 0.38569 0.76213 0.30710
 H1414 H 0.41812 0.75064 0.29609
 H1415 H 0.41764 0.79470 0.24977
 H1416 H 0.38525 0.80597 0.26099
 C1417 C -0.11690 0.78632 0.78555
 C1418 C -0.10778 0.77024 0.79478
 C1419 C -0.08929 0.76373 0.78836
 C1420 C -0.15087 0.79996 0.79901
 C1421 C -0.08910 0.78928 0.76326
 C1422 C -0.10757 0.79575 0.76972
 C1423 C -0.13549 0.79359 0.79276
 C1424 C -0.07966 0.77326 0.77259
 H1425 H -0.11484 0.76288 0.80710
 H1426 H -0.08246 0.75140 0.79592
 H1427 H -0.08212 0.79701 0.75112
 H1428 H -0.11448 0.80826 0.76251
 C1429 C 0.86940 0.28182 0.46646
 C1430 C 0.86027 0.29113 0.48248
 C1431 C 0.84154 0.28509 0.48863
 C1432 C 0.90326 0.29554 0.45282
 C1433 C 0.84119 0.26006 0.46298
 C1434 C 0.85992 0.26615 0.45686
 C1435 C 0.88799 0.28906 0.45921
 C1436 C 0.83165 0.26964 0.47879
 H1437 H 0.86745 0.30333 0.48998
 H1438 H 0.83467 0.29281 0.50084
 H1439 H 0.83403 0.24815 0.45503
 H1440 H 0.86683 0.25888 0.44439
 C1441 C 0.86929 0.78382 -0.03431
 C1442 C 0.85988 0.76813 -0.04395
 C1443 C 0.84131 0.76174 -0.03767
 C1444 C 0.90274 0.79814 -0.04833
 C1445 C 0.84168 0.78648 -0.01173
 C1446 C 0.86025 0.79283 -0.01806
 C1447 C 0.88766 0.79140 -0.04176
 C1448 C 0.83185 0.77103 -0.02164
 H1449 H 0.86672 0.76109 -0.05660
 H1450 H 0.83419 0.74984 -0.04566
 H1451 H 0.83486 0.79400 0.00063
 H1452 H 0.86737 0.80504 -0.01053
 C1453 C -0.11651 -0.03533 -0.03560
 C1454 C -0.10740 -0.01913 -0.04462
 C1455 C -0.08893 -0.01264 -0.03806
 C1456 C -0.15045 -0.04893 -0.04933
 C1457 C -0.08873 -0.03846 -0.01323
 C1458 C -0.10720 -0.04490 -0.01983
 C1459 C -0.13509 -0.04257 -0.04296
 C1460 C -0.07930 -0.02232 -0.02235
 H1461 H -0.11445 -0.01165 -0.05689
 H1462 H -0.08211 -0.00023 -0.04547
 H1463 H -0.08176 -0.04630 -0.00116
 H1464 H -0.11409 -0.05750 -0.01279
 C1465 C -0.11941 0.46758 0.46670
 C1466 C -0.11008 0.45809 0.48251
 C1467 C -0.09131 0.46411 0.48859
 C1468 C -0.15331 0.45388 0.45308
 C1469 C -0.09131 0.48946 0.46329
 C1470 C -0.11008 0.48340 0.45724
 C1471 C -0.13803 0.46035 0.45948
 C1472 C -0.08157 0.47972 0.47889
 H1473 H -0.11714 0.44577 0.48988
 H1474 H -0.08428 0.45625 0.50062
 H1475 H -0.08427 0.50150 0.45546
 H1476 H -0.11714 0.49080 0.44493
 C1477 C 0.38050 -0.03279 0.46616
 C1478 C 0.38990 -0.01700 0.45672
 C1479 C 0.40859 -0.01087 0.46294
 C1480 C 0.34667 -0.04649 0.45229
 C1481 C 0.40838 -0.03608 0.48838
 C1482 C 0.38969 -0.04218 0.48211
 C1483 C 0.36193 -0.04004 0.45880
 C1484 C 0.41818 -0.02050 0.47870
 H1485 H 0.38294 -0.00967 0.44431
 H1486 H 0.41567 0.00116 0.45513
 H1487 H 0.41531 -0.04386 0.50052
 H1488 H 0.38257 -0.05448 0.48948
 C1489 C 0.38281 0.46455 -0.03534
 C1490 C 0.39214 0.45511 -0.01949
 C1491 C 0.41062 0.46159 -0.01300
 C1492 C 0.34886 0.45085 -0.04891
 C1493 C 0.41041 0.48716 -0.03808
 C1494 C 0.39192 0.48064 -0.04454
 C1495 C 0.36422 0.45725 -0.04260
 C1496 C 0.42007 0.47761 -0.02231
 H1497 H 0.38524 0.44259 -0.01231
 H1498 H 0.41762 0.45385 -0.00087
 H1499 H 0.41724 0.49949 -0.04563
 H1500 H 0.38485 0.48801 -0.05687
 C1501 C 0.36667 0.46559 0.78597
 C1502 C 0.35760 0.45660 0.76971
 C1503 C 0.33915 0.46313 0.76321
 C1504 C 0.40036 0.45154 0.79971
 C1505 C 0.33889 0.48792 0.78911
 C1506 C 0.35735 0.48134 0.79557
 C1507 C 0.38513 0.45811 0.79331
 C1508 C 0.32948 0.47877 0.77294
 H1509 H 0.36465 0.44434 0.76222
 H1510 H 0.33235 0.45571 0.75076
 H1511 H 0.33188 0.49994 0.79699
 H1512 H 0.36421 0.48835 0.80823
 C1513 C 0.36710 -0.03541 0.28428
 C1514 C 0.35772 -0.04495 0.26851
 C1515 C 0.33917 -0.03860 0.26211
 C1516 C 0.40115 -0.04892 0.29770
 C1517 C 0.33942 -0.01293 0.28713
 C1518 C 0.35797 -0.01933 0.29350
 C1519 C 0.38574 -0.04260 0.29146
 C1520 C 0.32972 -0.02258 0.27143
 H1521 H 0.36462 -0.05747 0.26132
 H1522 H 0.33215 -0.04641 0.25003
 H1523 H 0.33258 -0.00060 0.29469
 H1524 H 0.36508 -0.01188 0.30577
 C1525 C 0.13059 0.53361 0.71745
 C1526 C 0.13970 0.51742 0.70840
 C1527 C 0.15835 0.51124 0.71464
 C1528 C 0.09690 0.54733 0.70334
 C1529 C 0.15869 0.53721 0.73935
 C1530 C 0.14003 0.54335 0.73306
 C1531 C 0.11210 0.54089 0.70998
 C1532 C 0.16821 0.52122 0.73003
 H1533 H 0.13255 0.50982 0.69624
 H1534 H 0.16521 0.49890 0.70712
 H1535 H 0.16582 0.54526 0.75120
 H1536 H 0.13314 0.55596 0.74012
 C1537 C 0.13033 0.03216 0.21701
 C1538 C 0.13953 0.01616 0.20774
 C1539 C 0.15832 0.01013 0.21376
 C1540 C 0.09625 0.04549 0.20342
 C1541 C 0.15861 0.03591 0.23866
 C1542 C 0.13982 0.04190 0.23260
 C1543 C 0.11163 0.03924 0.20983
 C1544 C 0.16820 0.02009 0.22914
 H1545 H 0.13235 0.00856 0.19560
 H1546 H 0.16523 -0.00208 0.20608
 H1547 H 0.16576 0.04393 0.25052
 H1548 H 0.13286 0.05436 0.23983
 C1549 C 0.61959 0.71725 0.21700
 C1550 C 0.61046 0.73345 0.20800
 C1551 C 0.59178 0.73956 0.21421
 C1552 C 0.65337 0.70370 0.20299
 C1553 C 0.59147 0.71351 0.23878
 C1554 C 0.61016 0.70743 0.23253
 C1555 C 0.63814 0.71006 0.20958
 C1556 C 0.58193 0.72950 0.22952
 H1557 H 0.61760 0.74112 0.19591
 H1558 H 0.58490 0.75191 0.20672
 H1559 H 0.58435 0.70540 0.25057
 H1560 H 0.61707 0.69482 0.23955
 C1561 C 0.11903 0.71733 0.71735
 C1562 C 0.10988 0.73343 0.70818
 C1563 C 0.09123 0.73963 0.71437
 C1564 C 0.15275 0.70361 0.70338
 C1565 C 0.09096 0.71386 0.73924
 C1566 C 0.10963 0.70769 0.73301
 C1567 C 0.13754 0.71004 0.70996
 C1568 C 0.08141 0.72976 0.72981
 H1569 H 0.11700 0.74096 0.69599
 H1570 H 0.08434 0.75190 0.70675
 H1571 H 0.08386 0.70589 0.75114
 H1572 H 0.11655 0.69516 0.74016
 C1573 C 0.63284 0.21490 0.53457
 C1574 C 0.64199 0.20559 0.51855
 C1575 C 0.66055 0.21190 0.51217
 C1576 C 0.59879 0.20155 0.54806
 C1577 C 0.66078 0.23704 0.53772
 C1578 C 0.64222 0.23070 0.54406
 C1579 C 0.61420 0.20778 0.54175
 C1580 C 0.67024 0.22763 0.52177
 H1581 H 0.63488 0.19329 0.51115
 H1582 H 0.66740 0.20428 0.49989
 H1583 H 0.66780 0.24915 0.54549
 H1584 H 0.63530 0.23796 0.55653
 C1585 C 0.63289 0.71582 0.03310
 C1586 C 0.64227 0.70620 0.01740
 C1587 C 0.66090 0.71244 0.01111
 C1588 C 0.59870 0.70265 0.04649
 C1589 C 0.66072 0.73813 0.03611
 C1590 C 0.64210 0.73186 0.04235
 C1591 C 0.61417 0.70877 0.04021
 C1592 C 0.67042 0.72841 0.02049
 H1593 H 0.63531 0.69372 0.01018
 H1594 H 0.66793 0.70457 -0.00090
 H1595 H 0.66760 0.75043 0.04370
 H1596 H 0.63500 0.73936 0.05457
 C1597 C 0.11971 0.03317 0.03294
 C1598 C 0.11056 0.01708 0.04211
 C1599 C 0.09186 0.01092 0.03597
 C1600 C 0.15355 0.04680 0.04683
 C1601 C 0.09153 0.03672 0.01113
 C1602 C 0.11025 0.04285 0.01731
 C1603 C 0.13828 0.04042 0.04027
 C1604 C 0.08199 0.02082 0.02057
 H1605 H 0.11773 0.00953 0.05427
 H1606 H 0.08498 -0.00135 0.04359
 H1607 H 0.08439 0.04471 -0.00074
 H1608 H 0.11716 0.05537 0.01015
 C1609 C 0.11743 0.53493 0.53370
 C1610 C 0.10831 0.51888 0.54297
 C1611 C 0.08975 0.51245 0.53666
 C1612 C 0.15137 0.54852 0.54735
 C1613 C 0.08947 0.53798 0.51154
 C1614 C 0.10804 0.54438 0.51789
 C1615 C 0.13602 0.54220 0.54094
 C1616 C 0.08002 0.52203 0.52096
 H1617 H 0.11542 0.51151 0.55528
 H1618 H 0.08292 0.50017 0.54429
 H1619 H 0.08242 0.54574 0.49946
 H1620 H 0.11494 0.55687 0.51066
 C1621 C 0.61684 0.03558 0.53406
 C1622 C 0.60746 0.04498 0.51823
 C1623 C 0.58893 0.03852 0.51183
 C1624 C 0.65079 0.04923 0.54766
 C1625 C 0.58921 0.01301 0.53697
 C1626 C 0.60773 0.01951 0.54333
 C1627 C 0.63543 0.04288 0.54129
 C1628 C 0.57950 0.02253 0.52122
 H1629 H 0.61434 0.05748 0.51099
 H1630 H 0.58190 0.04624 0.49972
 H1631 H 0.58240 0.00071 0.54459
 H1632 H 0.61484 0.01217 0.55566
 C1633 C 0.61917 0.53343 0.03219
 C1634 C 0.61000 0.51750 0.04163
 C1635 C 0.59130 0.51125 0.03558
 C1636 C 0.65298 0.54732 0.04589
 C1637 C 0.59103 0.53662 0.01030
 C1638 C 0.60974 0.54284 0.01639
 C1639 C 0.63773 0.54081 0.03943
 C1640 C 0.58146 0.52091 0.01999
 H1641 H 0.61715 0.51016 0.05393
 H1642 H 0.58439 0.49913 0.04340
 H1643 H 0.58391 0.54442 -0.00172
 H1644 H 0.61668 0.55524 0.00903
 C1645 C 0.03369 0.03150 0.12009
 C1646 C 0.01786 0.04102 0.11088
 C1647 C 0.01170 0.03510 0.09206
 C1648 C 0.04729 0.04497 0.15419
 C1649 C 0.03699 0.00980 0.09175
 C1650 C 0.04312 0.01576 0.11058
 C1651 C 0.04093 0.03859 0.13880
 C1652 C 0.02135 0.01957 0.08214
 H1653 H 0.01050 0.05327 0.11808
 H1654 H -0.00037 0.04298 0.08513
 H1655 H 0.04478 -0.00218 0.08458
 H1656 H 0.05545 0.00833 0.11755
 C1657 C 0.03490 0.53485 0.61701
 C1658 C 0.01923 0.54441 0.60756
 C1659 C 0.01297 0.53814 0.58889
 C1660 C 0.04792 0.54807 0.65142
 C1661 C 0.03797 0.51254 0.58912
 C1662 C 0.04420 0.51885 0.60780
 C1663 C 0.04187 0.54189 0.63584
 C1664 C 0.02234 0.52219 0.57938
 H1665 H 0.01198 0.55685 0.61453
 H1666 H 0.00094 0.54595 0.58184
 H1667 H 0.04556 0.50026 0.58224
 H1668 H 0.05640 0.51139 0.61495
 C1669 C 0.53444 0.03421 0.61766
 C1670 C 0.51848 0.04352 0.60843
 C1671 C 0.51213 0.03722 0.58980
 C1672 C 0.54779 0.04766 0.65188
 C1673 C 0.53757 0.01207 0.58964
 C1674 C 0.54389 0.01841 0.60828
 C1675 C 0.54158 0.04137 0.63640
 C1676 C 0.52169 0.02149 0.58009
 H1677 H 0.51110 0.05582 0.61553
 H1678 H 0.49990 0.04486 0.58290
 H1679 H 0.54532 -0.00003 0.58262
 H1680 H 0.55631 0.01114 0.61526
 C1681 C 0.53270 0.53205 0.11973
 C1682 C 0.51695 0.54158 0.11038
 C1683 C 0.51094 0.53564 0.09152
 C1684 C 0.54607 0.54553 0.15390
 C1685 C 0.53621 0.51030 0.09146
 C1686 C 0.54219 0.51629 0.11032
 C1687 C 0.53980 0.53916 0.13849
 C1688 C 0.52065 0.52007 0.08172
 H1689 H 0.50956 0.55385 0.11750
 H1690 H 0.49893 0.54351 0.08449
 H1691 H 0.54404 0.49830 0.08437
 H1692 H 0.55446 0.50886 0.11740
 C1693 C 0.21607 0.53311 0.63105
 C1694 C 0.20646 0.51743 0.64045
 C1695 C 0.21268 0.51114 0.65912
 C1696 C 0.20222 0.54729 0.59740
 C1697 C 0.23845 0.53598 0.65886
 C1698 C 0.23220 0.54223 0.64019
 C1699 C 0.20871 0.54060 0.61257
 C1700 C 0.22859 0.52053 0.66869
 H1701 H 0.19391 0.51032 0.63353
 H1702 H 0.20472 0.49923 0.66624
 H1703 H 0.25073 0.54356 0.66575
 H1704 H 0.23970 0.55444 0.63307
 C1705 C 0.21625 0.03182 0.12981
 C1706 C 0.20668 0.01614 0.13926
 C1707 C 0.21290 0.00994 0.15797
 C1708 C 0.20246 0.04590 0.09607
 C1709 C 0.23857 0.03488 0.15765
 C1710 C 0.23233 0.04103 0.13895
 C1711 C 0.20890 0.03923 0.11129
 C1712 C 0.22876 0.01942 0.16752
 H1713 H 0.19416 0.00896 0.13235
 H1714 H 0.20498 -0.00197 0.16513
 H1715 H 0.25082 0.04253 0.16453
 H1716 H 0.23980 0.05324 0.13180
 C1717 C 0.71510 0.21652 0.61753
 C1718 C 0.70551 0.23217 0.60802
 C1719 C 0.71171 0.23834 0.58932
 C1720 C 0.70201 0.20334 0.65188
 C1721 C 0.73730 0.21334 0.58966
 C1722 C 0.73107 0.20721 0.60836
 C1723 C 0.70810 0.20953 0.63634
 C1724 C 0.72761 0.22890 0.57984
 H1725 H 0.69307 0.23943 0.61496
 H1726 H 0.70386 0.25032 0.58220
 H1727 H 0.74956 0.20570 0.58282
 H1728 H 0.73855 0.19503 0.61556
 C1729 C 0.71588 0.71659 0.11719
 C1730 C 0.73175 0.70719 0.10794
 C1731 C 0.73802 0.71339 0.08927
 C1732 C 0.70269 0.70330 0.15147
 C1733 C 0.71267 0.73863 0.08914
 C1734 C 0.70643 0.73239 0.10781
 C1735 C 0.70883 0.70953 0.13596
 C1736 C 0.72846 0.72911 0.07957
 H1737 H 0.73913 0.69489 0.11504
 H1738 H 0.75019 0.70568 0.08235
 H1739 H 0.70493 0.75074 0.08211
 H1740 H 0.69408 0.73973 0.11481
 C1741 C 0.53407 0.71788 0.13026
 C1742 C 0.51809 0.70856 0.13940
 C1743 C 0.51186 0.71465 0.15812
 C1744 C 0.54781 0.70407 0.09641
 C1745 C 0.53738 0.73975 0.15847
 C1746 C 0.54357 0.73362 0.13975
 C1747 C 0.54139 0.71060 0.11168
 C1748 C 0.52159 0.73017 0.16801
 H1749 H 0.51067 0.69631 0.13221
 H1750 H 0.49968 0.70692 0.16499
 H1751 H 0.54524 0.75172 0.16563
 H1752 H 0.55602 0.74089 0.13284
 C1753 C 0.03351 0.71740 0.63105
 C1754 C 0.01756 0.70809 0.64027
 C1755 C 0.01120 0.71445 0.65886
 C1756 C 0.04761 0.70307 0.59755
 C1757 C 0.03650 0.73978 0.65889
 C1758 C 0.04282 0.73339 0.64029
 C1759 C 0.04100 0.70982 0.61265
 C1760 C 0.02078 0.73021 0.66854
 H1761 H 0.01029 0.69565 0.63327
 H1762 H -0.00092 0.70671 0.66583
 H1763 H 0.04424 0.75192 0.66588
 H1764 H 0.05523 0.74065 0.63331
 C1765 C 0.53247 0.63058 0.21731
 C1766 C 0.54199 0.64001 0.23306
 C1767 C 0.53608 0.65888 0.23899
 C1768 C 0.54585 0.59634 0.20409
 C1769 C 0.51079 0.65882 0.21364
 C1770 C 0.51675 0.63994 0.20774
 C1771 C 0.53953 0.61179 0.21030
 C1772 C 0.52055 0.66864 0.22919
 H1773 H 0.55424 0.63292 0.24052
 H1774 H 0.54394 0.66597 0.25100
 H1775 H 0.49881 0.66587 0.20574
 H1776 H 0.50933 0.63280 0.19547
 C1777 C 0.03244 0.63143 0.71663
 C1778 C 0.04158 0.64059 0.73276
 C1779 C 0.03542 0.65930 0.73897
 C1780 C 0.04636 0.59763 0.70285
 C1781 C 0.01062 0.65958 0.71313
 C1782 C 0.01682 0.64087 0.70696
 C1783 C 0.03980 0.61288 0.70932
 C1784 C 0.02002 0.66915 0.72906
 H1785 H 0.05374 0.63344 0.74031
 H1786 H 0.04301 0.66620 0.75126
 H1787 H -0.00125 0.66671 0.70514
 H1788 H 0.00969 0.63394 0.69440
 C1789 C 0.03317 0.11919 0.03418
 C1790 C 0.01776 0.10964 0.04404
 C1791 C 0.01153 0.09091 0.03791
 C1792 C 0.04712 0.15309 0.04777
 C1793 C 0.03590 0.09140 0.01173
 C1794 C 0.04209 0.11013 0.01790
 C1795 C 0.04055 0.13780 0.04140
 C1796 C 0.02070 0.08144 0.02181
 H1797 H 0.01081 0.11650 0.05672
 H1798 H -0.00018 0.08369 0.04604
 H1799 H 0.04332 0.08459 -0.00070
 H1800 H 0.05409 0.11737 0.01020
 C1801 C 0.03439 0.61738 0.53472
 C1802 C 0.01867 0.60804 0.54429
 C1803 C 0.01219 0.58947 0.53793
 C1804 C 0.04814 0.65141 0.54820
 C1805 C 0.03703 0.58964 0.51219
 C1806 C 0.04347 0.60820 0.51859
 C1807 C 0.04172 0.63601 0.54192
 C1808 C 0.02140 0.57996 0.52188
 H1809 H 0.01159 0.61498 0.55685
 H1810 H 0.00017 0.58245 0.54578
 H1811 H 0.04450 0.58277 0.49983
 H1812 H 0.05570 0.61528 0.51112
 C1813 C 0.53461 0.11718 0.53497
 C1814 C 0.51865 0.10798 0.54429
 C1815 C 0.51225 0.08938 0.53796
 C1816 C 0.54818 0.15129 0.54833
 C1817 C 0.53767 0.08922 0.51278
 C1818 C 0.54403 0.10781 0.51915
 C1819 C 0.54183 0.13586 0.54211
 C1820 C 0.52177 0.07970 0.52220
 H1821 H 0.51131 0.11508 0.55661
 H1822 H 0.50002 0.08249 0.54558
 H1823 H 0.54538 0.08221 0.50065
 H1824 H 0.55645 0.11478 0.51188
 C1825 C 0.53307 0.61932 0.03290
 C1826 C 0.54190 0.61011 0.01666
 C1827 C 0.53561 0.59138 0.01063
 C1828 C 0.54721 0.65322 0.04629
 C1829 C 0.51129 0.59117 0.03685
 C1830 C 0.51762 0.60991 0.04285
 C1831 C 0.54056 0.63793 0.04000
 C1832 C 0.52038 0.58156 0.02081
 H1833 H 0.55392 0.61723 0.00890
 H1834 H 0.54297 0.58444 -0.00176
 H1835 H 0.49956 0.58407 0.04506
 H1836 H 0.51073 0.61689 0.05550
 C1837 C 0.71494 0.13242 0.53487
 C1838 C 0.73074 0.14175 0.54439
 C1839 C 0.73726 0.16027 0.53796
 C1840 C 0.70107 0.09851 0.54846
 C1841 C 0.71231 0.16008 0.51227
 C1842 C 0.70583 0.14157 0.51873
 C1843 C 0.70756 0.11385 0.54214
 C1844 C 0.72801 0.16975 0.52191
 H1845 H 0.73785 0.13483 0.55695
 H1846 H 0.74934 0.16727 0.54577
 H1847 H 0.70481 0.16693 0.49991
 H1848 H 0.69354 0.13451 0.51130
 C1849 C 0.71555 0.63317 0.03401
 C1850 C 0.73159 0.64233 0.04326
 C1851 C 0.73788 0.66100 0.03705
 C1852 C 0.70240 0.59879 0.04710
 C1853 C 0.71216 0.66132 0.01213
 C1854 C 0.70591 0.64265 0.01838
 C1855 C 0.70854 0.61435 0.04100
 C1856 C 0.72816 0.67079 0.02147
 H1857 H 0.73911 0.63515 0.05543
 H1858 H 0.75020 0.66784 0.04461
 H1859 H 0.70430 0.66841 0.00013
 H1860 H 0.69343 0.63572 0.01116
 C1861 C 0.21714 0.61957 0.71708
 C1862 C 0.20765 0.61026 0.73289
 C1863 C 0.21376 0.59155 0.73913
 C1864 C 0.20331 0.65334 0.70317
 C1865 C 0.23920 0.59156 0.71399
 C1866 C 0.23305 0.61027 0.70779
 C1867 C 0.20983 0.63811 0.70969
 C1868 C 0.22945 0.58184 0.72958
 H1869 H 0.19526 0.61730 0.74014
 H1870 H 0.20589 0.58454 0.75116
 H1871 H 0.25130 0.58454 0.70628
 H1872 H 0.24045 0.61731 0.69548
 C1873 C 0.21719 0.11874 0.21570
 C1874 C 0.20808 0.10959 0.23181
 C1875 C 0.21421 0.09085 0.23796
 C1876 C 0.20336 0.15263 0.20208
 C1877 C 0.23891 0.09053 0.21208
 C1878 C 0.23274 0.10927 0.20598
 C1879 C 0.20988 0.13734 0.20847
 C1880 C 0.22955 0.08097 0.22800
 H1881 H 0.19598 0.11677 0.23940
 H1882 H 0.20665 0.08396 0.25024
 H1883 H 0.25074 0.08339 0.20406
 H1884 H 0.23985 0.11620 0.19343
 C1885 C 0.71720 1.11977 0.71685
 C1886 C 0.70768 1.11045 0.73263
 C1887 C 0.71373 1.09170 0.73881
 C1888 C 0.70346 1.15362 0.70308
 C1889 C 0.73918 1.09171 0.71368
 C1890 C 0.73308 1.11045 0.70752
 C1891 C 0.70995 1.13836 0.70953
 C1892 C 0.72941 1.08198 0.72924
 H1893 H 0.69531 1.11750 0.73990
 H1894 H 0.70585 1.08468 0.75082
 H1895 H 0.75127 1.08468 0.70595
 H1896 H 0.74051 1.11751 0.69524
 C1897 C 0.71784 0.61960 0.21623
 C1898 C 0.73343 0.61016 0.20655
 C1899 C 0.73961 0.59143 0.21266
 C1900 C 0.70398 0.65347 0.20256
 C1901 C 0.71485 0.59170 0.23847
 C1902 C 0.70870 0.61043 0.23232
 C1903 C 0.71051 0.63819 0.20898
 C1904 C 0.73022 0.58184 0.22855
 H1905 H 0.74056 0.61710 0.19402
 H1906 H 0.75146 0.58430 0.20466
 H1907 H 0.70727 0.58479 0.25073
 H1908 H 0.69657 0.61758 0.23987
 C1909 C 0.53236 0.13070 0.71631
 C1910 C 0.51639 0.14001 0.70710
 C1911 C 0.51022 0.15868 0.71344
 C1912 C 0.54617 0.09696 0.70224
 C1913 C 0.53576 0.15861 0.73855
 C1914 C 0.54189 0.13995 0.73217
 C1915 C 0.53965 0.11218 0.70882
 C1916 C 0.52000 0.16834 0.72909
 H1917 H 0.50895 0.13301 0.69476
 H1918 H 0.49807 0.16570 0.70579
 H1919 H 0.54365 0.16559 0.75060
 H1920 H 0.55431 0.13290 0.73936
 C1921 C 1.03288 0.12937 0.21681
 C1922 C 1.04198 0.13860 0.23292
 C1923 C 1.03591 0.15741 0.23893
 C1924 C 1.04652 0.09525 0.20353
 C1925 C 1.01131 0.15767 0.21290
 C1926 C 1.01742 0.13886 0.20694
 C1927 C 1.04010 0.11064 0.20977
 C1928 C 1.02065 0.16729 0.22884
 H1929 H 1.05402 0.13142 0.24063
 H1930 H 1.04345 0.16434 0.25123
 H1931 H 0.99955 0.16482 0.20477
 H1932 H 1.01033 0.13187 0.19439
 C1933 C 0.21563 0.63295 0.53478
 C1934 C 0.20656 0.64212 0.51864
 C1935 C 0.21295 0.66072 0.51233
 C1936 C 0.20192 0.59888 0.54807
 C1937 C 0.23771 0.66094 0.53821
 C1938 C 0.23129 0.64233 0.54447
 C1939 C 0.20834 0.61429 0.54188
 C1940 C 0.22852 0.67044 0.52214
 H1941 H 0.19438 0.63502 0.51107
 H1942 H 0.20549 0.66758 0.49995
 H1943 H 0.24968 0.66798 0.54614
 H1944 H 0.23836 0.63539 0.55705
 C1945 C 0.21600 0.13165 1.03508
 C1946 C 0.23158 0.14106 1.04488
 C1947 C 0.23789 0.15977 1.03878
 C1948 C 0.20257 0.09731 1.04797
 C1949 C 0.21317 0.15960 1.01287
 C1950 C 0.20690 0.14091 1.01900
 C1951 C 0.20886 0.11285 1.04197
 C1952 C 0.22867 0.16934 1.02277
 H1953 H 0.23868 0.13406 1.05740
 H1954 H 0.24981 0.16682 1.04679
 H1955 H 0.20569 0.16651 1.00053
 H1956 H 0.19477 0.13379 1.01136
 C1957 C 0.21493 0.71589 0.61729
 C1958 C 0.20568 0.73188 0.60804
 C1959 C 0.21193 0.73814 0.58938
 C1960 C 0.20185 0.70276 0.65167
 C1961 C 0.23688 0.71249 0.58925
 C1962 C 0.23059 0.70627 0.60790
 C1963 C 0.20792 0.70890 0.63610
 C1964 C 0.22755 0.72844 0.57969
 H1965 H 0.19348 0.73938 0.61515
 H1966 H 0.20437 0.75042 0.58246
 H1967 H 0.24890 0.70464 0.58224
 H1968 H 0.23781 0.69382 0.61491
 C1969 C 0.21505 0.21448 1.11814
 C1970 C 0.20575 0.23048 1.10894
 C1971 C 0.21198 0.23682 1.09030
 C1972 C 0.20199 0.20112 1.15243
 C1973 C 0.23701 0.21125 1.09008
 C1974 C 0.23075 0.20495 1.10871
 C1975 C 0.20806 0.20738 1.13691
 C1976 C 0.22762 0.22720 1.08058
 H1977 H 0.19353 0.23791 1.11608
 H1978 H 0.20437 0.24910 1.08343
 H1979 H 0.24905 0.20346 1.08304
 H1980 H 0.23800 0.19250 1.11567
 C1981 C 0.71722 0.53312 0.13012
 C1982 C 0.73309 0.54250 0.13946
 C1983 C 0.73927 0.53631 0.15817
 C1984 C 0.70344 0.54710 0.09635
 C1985 C 0.71397 0.51099 0.15810
 C1986 C 0.70782 0.51723 0.13938
 C1987 C 0.70991 0.54052 0.11158
 C1988 C 0.72962 0.52063 0.16784
 H1989 H 0.74043 0.55488 0.13245
 H1990 H 0.75135 0.54409 0.16521
 H1991 H 0.70617 0.49890 0.16509
 H1992 H 0.69547 0.50991 0.13231
 C1993 C 0.71597 1.03347 0.63090
 C1994 C 0.73218 1.04248 0.64000
 C1995 C 0.73851 1.03613 0.65861
 C1996 C 0.70194 1.04787 0.59740
 C1997 C 0.71267 1.01135 0.65889
 C1998 C 0.70637 1.01776 0.64028
 C1999 C 0.70851 1.04109 0.61250
 C2000 C 0.72865 1.02065 0.66841
 H2001 H 0.73967 1.05471 0.63291
 H2002 H 0.75084 1.04364 0.66547
 H2003 H 0.70471 0.99944 0.66599
 H2004 H 0.69375 1.01072 0.63339
 C2005 C 0.53332 0.21726 0.63099
 C2006 C 0.54273 0.23309 0.64039
 C2007 C 0.53644 0.23935 0.65904
 C2008 C 0.54746 0.20307 0.59749
 C2009 C 0.51097 0.21420 0.65875
 C2010 C 0.51729 0.20798 0.64010
 C2011 C 0.54082 0.20977 0.61258
 C2012 C 0.52065 0.22979 0.66858
 H2013 H 0.55521 0.24033 0.63350
 H2014 H 0.54426 0.25137 0.66616
 H2015 H 0.49879 0.20648 0.66563
 H2016 H 0.50995 0.19566 0.63298
 C2017 C 1.03372 0.21642 0.13036
 C2018 C 1.04312 0.23228 0.13974
 C2019 C 1.03696 0.23844 0.15847
 C2020 C 1.04747 0.20255 0.09655
 C2021 C 1.01166 0.21310 0.15833
 C2022 C 1.01786 0.20699 0.13960
 C2023 C 1.04103 0.20911 0.11180
 C2024 C 1.02131 0.22875 0.16812
 H2025 H 1.05547 0.23964 0.13274
 H2026 H 1.04475 0.25049 0.16555
 H2027 H 0.99959 0.20529 0.16529
 H2028 H 1.01052 0.19465 0.13251
 C2029 C 0.61891 0.21708 0.71744
 C2030 C 0.60973 0.23329 0.70850
 C2031 C 0.59102 0.23930 0.71471
 C2032 C 0.65275 0.20371 0.70344
 C2033 C 0.59076 0.21312 0.73915
 C2034 C 0.60948 0.20714 0.73290
 C2035 C 0.63748 0.21000 0.71003
 C2036 C 0.58118 0.22913 0.72995
 H2037 H 0.61686 0.24104 0.69647
 H2038 H 0.58411 0.25167 0.70727
 H2039 H 0.58365 0.20493 0.75089
 H2040 H 0.61643 0.19452 0.73987
 C2041 C 1.11968 0.21575 0.21725
 C2042 C 1.11055 0.23189 0.20813
 C2043 C 1.09187 0.23804 0.21428
 C2044 C 1.15339 0.20209 0.20323
 C2045 C 1.09156 0.21216 0.23904
 C2046 C 1.11024 0.20604 0.23285
 C2047 C 1.13819 0.20850 0.20985
 C2048 C 1.08201 0.22808 0.22965
 H2049 H 1.11769 0.23946 0.19599
 H2050 H 1.08499 0.25033 0.20670
 H2051 H 1.08442 0.20413 0.25089
 H2052 H 1.11716 0.19348 0.23996
 C2053 C 0.13258 0.71544 0.53415
 C2054 C 0.14173 0.73150 0.54343
 C2055 C 0.16025 0.73796 0.53707
 C2056 C 0.09868 0.70181 0.54781
 C2057 C 0.16043 0.71244 0.51191
 C2058 C 0.14190 0.70601 0.51830
 C2059 C 0.11401 0.70815 0.54141
 C2060 C 0.16991 0.72840 0.52133
 H2061 H 0.13468 0.73886 0.55576
 H2062 H 0.16711 0.75025 0.54471
 H2063 H 0.16743 0.70469 0.49979
 H2064 H 0.13498 0.69352 0.51106
 C2065 C 0.13223 0.21494 1.03443
 C2066 C 0.14144 0.23089 1.04383
 C2067 C 0.16009 0.23718 1.03769
 C2068 C 0.09801 0.20171 1.04768
 C2069 C 0.16029 0.21167 1.01250
 C2070 C 0.14164 0.20542 1.01869
 C2071 C 0.11349 0.20787 1.04146
 C2072 C 0.16982 0.22755 1.02203
 H2073 H 0.13432 0.23832 1.05609
 H2074 H 0.16697 0.24940 1.04539
 H2075 H 0.16734 0.20388 1.00044
 H2076 H 0.13467 0.19301 1.01136
 C2077 C 0.63073 0.53294 0.21764
 C2078 C 0.64024 0.54260 0.23326
 C2079 C 0.65909 0.53667 0.23917
 C2080 C 0.59650 0.54615 0.20437
 C2081 C 0.65883 0.51112 0.21402
 C2082 C 0.63998 0.51709 0.20816
 C2083 C 0.61195 0.53995 0.21064
 C2084 C 0.66873 0.52100 0.22946
 H2085 H 0.63323 0.55495 0.24065
 H2086 H 0.66625 0.54462 0.25107
 H2087 H 0.66578 0.49902 0.20621
 H2088 H 0.63278 0.50956 0.19600
 C2089 C 0.63062 1.03330 0.71660
 C2090 C 0.63984 1.01714 0.70762
 C2091 C 0.65850 1.01104 0.71398
 C2092 C 0.59685 1.04681 0.70243
 C2093 C 0.65860 1.03706 0.73863
 C2094 C 0.63995 1.04311 0.73224
 C2095 C 0.61209 1.04046 0.70907
 C2096 C 0.66823 1.02109 0.72940
 H2097 H 0.63278 1.00947 0.69545
 H2098 H 0.66544 0.99872 0.70651
 H2099 H 0.66564 1.04516 0.75051
 H2100 H 0.63297 1.05570 0.73924
 C2101 C 0.86716 0.46457 0.28514
 C2102 C 0.85806 0.48066 0.29438
 C2103 C 0.83960 0.48720 0.28790
 C2104 C 0.90106 0.45079 0.29871
 C2105 C 0.83939 0.46168 0.26274
 C2106 C 0.85784 0.45517 0.26925
 C2107 C 0.88572 0.45723 0.29241
 C2108 C 0.82996 0.47770 0.27208
 H2109 H 0.86512 0.48799 0.30674
 H2110 H 0.83278 0.49953 0.29548
 H2111 H 0.83241 0.45397 0.25057
 H2112 H 0.86473 0.44265 0.26204
 C2113 C 0.86667 0.96623 0.78629
 C2114 C 0.85771 0.95722 0.76997
 C2115 C 0.83928 0.96370 0.76337
 C2116 C 0.90036 0.95224 0.80012
 C2117 C 0.83881 0.98847 0.78928
 C2118 C 0.85725 0.98194 0.79584
 C2119 C 0.88512 0.95880 0.79370
 C2120 C 0.82951 0.97931 0.77306
 H2121 H 0.86485 0.94499 0.76251
 H2122 H 0.83257 0.95627 0.75088
 H2123 H 0.83171 1.00046 0.79714
 H2124 H 0.86402 0.98897 0.80854
 C2125 C 0.38252 0.28415 0.78555
 C2126 C 0.39193 0.26854 0.79529
 C2127 C 0.41046 0.26206 0.78898
 C2128 C 0.34857 0.29797 0.79887
 C2129 C 0.41012 0.28669 0.76297
 C2130 C 0.39159 0.29312 0.76932
 C2131 C 0.36393 0.29150 0.79268
 C2132 C 0.41986 0.27117 0.77282
 H2133 H 0.38506 0.26154 0.80793
 H2134 H 0.41753 0.25014 0.79695
 H2135 H 0.41690 0.29408 0.75052
 H2136 H 0.38447 0.30527 0.76172
 C2137 C 0.88352 0.28440 0.28487
 C2138 C 0.89264 0.26838 0.29420
 C2139 C 0.91114 0.26185 0.28784
 C2140 C 0.84956 0.29817 0.29822
 C2141 C 0.91134 0.28727 0.26260
 C2142 C 0.89285 0.29375 0.26899
 C2143 C 0.86493 0.29173 0.29202
 C2144 C 0.92078 0.27131 0.27203
 H2145 H 0.88557 0.26108 0.30656
 H2146 H 0.91798 0.24958 0.29548
 H2147 H 0.91832 0.29494 0.25043
 H2148 H 0.88595 0.30622 0.26171
 C2149 C 0.36908 0.78294 0.46665
 C2150 C 0.35976 0.76703 0.45729
 C2151 C 0.34107 0.76088 0.46347
 C2152 C 0.40282 0.79679 0.45283
 C2153 C 0.34115 0.78633 0.48871
 C2154 C 0.35983 0.79243 0.48250
 C2155 C 0.38761 0.79025 0.45930
 C2156 C 0.33141 0.77063 0.47910
 H2157 H 0.36676 0.75963 0.44495
 H2158 H 0.33403 0.74879 0.45570
 H2159 H 0.33418 0.79419 0.50077
 H2160 H 0.36689 0.80482 0.48981
 C2161 C 0.36861 0.28311 0.96715
 C2162 C 0.35946 0.29227 0.98324
 C2163 C 0.34094 0.28583 0.98962
 C2164 C 0.40189 0.29765 0.95294
 C2165 C 0.34087 0.26070 0.96407
 C2166 C 0.35939 0.26718 0.95772
 C2167 C 0.38690 0.29081 0.95960
 C2168 C 0.33128 0.27014 0.97993
 H2169 H 0.36644 0.30466 0.99060
 H2170 H 0.33402 0.29347 1.00185
 H2171 H 0.33387 0.24862 0.95623
 H2172 H 0.36632 0.26003 0.94519
 C2173 C 0.78388 0.46573 0.36752
 C2174 C 0.76821 0.45617 0.35802
 C2175 C 0.76210 0.46236 0.33927
 C2176 C 0.79697 0.45260 0.40191
 C2177 C 0.78721 0.48787 0.33958
 C2178 C 0.79328 0.48165 0.35831
 C2179 C 0.79082 0.45871 0.38635
 C2180 C 0.77162 0.47821 0.32975
 H2181 H 0.76088 0.44377 0.36498
 H2182 H 0.75009 0.45454 0.33216
 H2183 H 0.79491 0.50009 0.33270
 H2184 H 0.80548 0.48910 0.36551
 C2185 C 0.78554 0.96503 0.86715
 C2186 C 0.76954 0.95566 0.85802
 C2187 C 0.76286 0.96212 0.83956
 C2188 C 0.79960 0.95143 0.90098
 C2189 C 0.78806 0.98755 0.83943
 C2190 C 0.79469 0.98105 0.85788
 C2191 C 0.79304 0.95775 0.88568
 C2192 C 0.77214 0.97807 0.82996
 H2193 H 0.76239 0.94318 0.86504
 H2194 H 0.75062 0.95444 0.83270
 H2195 H 0.79559 0.99983 0.83249
 H2196 H 0.80714 0.98837 0.86479
 C2197 C 0.28327 0.78441 0.38076
 C2198 C 0.26757 0.79401 0.39012
 C2199 C 0.26115 0.78768 0.40870
 C2200 C 0.29766 0.79845 0.34729
 C2201 C 0.28588 0.76183 0.40843
 C2202 C 0.29225 0.76818 0.38986
 C2203 C 0.29088 0.79188 0.36238
 C2204 C 0.27041 0.77167 0.41822
 H2205 H 0.26055 0.80664 0.38324
 H2206 H 0.24924 0.79563 0.41579
 H2207 H 0.29337 0.74947 0.41529
 H2208 H 0.30447 0.76069 0.38277
 C2209 C 0.28282 0.28355 0.88164
 C2210 C 0.26714 0.29311 0.89106
 C2211 C 0.26084 0.28680 0.90968
 C2212 C 0.29703 0.29759 0.84810
 C2213 C 0.28565 0.26102 0.90933
 C2214 C 0.29191 0.26737 0.89072
 C2215 C 0.29033 0.29102 0.86322
 C2216 C 0.27020 0.27083 0.91918
 H2217 H 0.26005 0.30571 0.88419
 H2218 H 0.24894 0.29473 0.91681
 H2219 H 0.29321 0.24870 0.91618
 H2220 H 0.30411 0.25990 0.88358
 C2221 C 0.46472 0.28554 0.86748
 C2222 C 0.48083 0.29462 0.85833
 C2223 C 0.48726 0.28811 0.83982
 C2224 C 0.45121 0.29922 0.90149
 C2225 C 0.46155 0.26320 0.83963
 C2226 C 0.45516 0.26975 0.85814
 C2227 C 0.45752 0.29287 0.88610
 C2228 C 0.47760 0.27239 0.83016
 H2229 H 0.48829 0.30691 0.86540
 H2230 H 0.49961 0.29557 0.83297
 H2231 H 0.45372 0.25111 0.83263
 H2232 H 0.44262 0.26266 0.86506
 C2233 C 0.96644 0.28342 0.36762
 C2234 C 0.98216 0.29297 0.35824
 C2235 C 0.98840 0.28675 0.33956
 C2236 C 0.95311 0.29664 0.40187
 C2237 C 0.96332 0.26120 0.33967
 C2238 C 0.95712 0.26746 0.35835
 C2239 C 0.95936 0.29048 0.38638
 C2240 C 0.97895 0.27086 0.32997
 H2241 H 0.98943 0.30540 0.36526
 H2242 H 1.00043 0.29457 0.33254
 H2243 H 0.95567 0.24896 0.33274
 H2244 H 0.94489 0.26001 0.36544
 C2245 C 0.46444 0.36716 0.78526
 C2246 C 0.45511 0.35787 0.76932
 C2247 C 0.46161 0.33938 0.76280
 C2248 C 0.45058 0.40090 0.79923
 C2249 C 0.48703 0.33955 0.78802
 C2250 C 0.48049 0.35804 0.79450
 C2251 C 0.45703 0.38565 0.79269
 C2252 C 0.47756 0.32991 0.77219
 H2253 H 0.44261 0.36478 0.76211
 H2254 H 0.45393 0.33240 0.75061
 H2255 H 0.49931 0.33270 0.79564
 H2256 H 0.48777 0.36508 0.80692
 C2257 C 0.96490 0.36628 0.28430
 C2258 C 0.98107 0.35720 0.29336
 C2259 C 0.98752 0.33868 0.28688
 C2260 C 0.95133 0.40020 0.29817
 C2261 C 0.96176 0.33838 0.26200
 C2262 C 0.95534 0.35690 0.26853
 C2263 C 0.95764 0.38486 0.29168
 C2264 C 0.97785 0.32896 0.27120
 H2265 H 0.98853 0.36430 0.30563
 H2266 H 0.99991 0.33188 0.29434
 H2267 H 0.95392 0.33133 0.24996
 H2268 H 0.94275 0.36378 0.26146
 C2269 C 0.28335 0.86983 0.46718
 C2270 C 0.26723 0.86069 0.45806
 C2271 C 0.26105 0.84198 0.46423
 C2272 C 0.29709 0.90360 0.45320
 C2273 C 0.28690 0.84166 0.48901
 C2274 C 0.29304 0.86038 0.48280
 C2275 C 0.29064 0.88838 0.45979
 C2276 C 0.27098 0.83211 0.47963
 H2277 H 0.25967 0.86785 0.44590
 H2278 H 0.24876 0.83509 0.45665
 H2279 H 0.29490 0.83452 0.50088
 H2280 H 0.30559 0.86730 0.48991
 C2281 C 0.28412 0.36849 0.96760
 C2282 C 0.26783 0.35948 0.95862
 C2283 C 0.26139 0.34094 0.96503
 C2284 C 0.29840 0.40182 0.95310
 C2285 C 0.28726 0.34055 0.98979
 C2286 C 0.29367 0.35909 0.98334
 C2287 C 0.29170 0.38680 0.95993
 C2288 C 0.27120 0.33110 0.98052
 H2289 H 0.26038 0.36660 0.94637
 H2290 H 0.24901 0.33413 0.95753
 H2291 H 0.29519 0.33343 1.00171
 H2292 H 0.30634 0.36590 0.99035
 C2293 C 0.78577 0.38275 0.28371
 C2294 C 0.79533 0.39215 0.26799
 C2295 C 0.78893 0.41070 0.26152
 C2296 C 0.79931 0.34880 0.29750
 C2297 C 0.76318 0.41038 0.28635
 C2298 C 0.76962 0.39184 0.29278
 C2299 C 0.79301 0.36416 0.29104
 C2300 C 0.77286 0.42012 0.27073
 H2301 H 0.80791 0.38528 0.26092
 H2302 H 0.79678 0.41776 0.24952
 H2303 H 0.75081 0.41718 0.29382
 H2304 H 0.76216 0.38472 0.30500
   
