data_POSCAR
  _audit_creation_date              2014-09-24
  _audit_creation_method            'ToBaCCo'
  _symmetry_space_group_name_H-M    'P1'
  _symmetry_Int_Tables_number       1
  _symmetry_cell_setting            triclinic
  loop_
  _symmetry_equiv_pos_as_xyz
 x,y,z
_cell_length_a 62.8033
_cell_length_b 62.6432
_cell_length_c 61.8036
_cell_angle_alpha 90.005600
_cell_angle_beta 89.872500
_cell_angle_gamma 89.992500
loop_
  _atom_site_label
  _atom_site_type_symbol
  _atom_site_fract_x
  _atom_site_fract_y
  _atom_site_fract_z
C1 C 0.31403 0.31438 -0.01079
 C2 C 0.31412 0.31440 0.01127
 C3 C 0.29930 0.32803 0.02395
 C4 C 0.32948 0.30125 0.02376
 C5 C 0.32751 0.29942 -0.02348
 C6 C 0.30094 0.32975 -0.02333
 C7 C 0.30743 0.34232 0.03936
 C8 C 0.29377 0.35597 0.05065
 C9 C 0.27183 0.35535 0.04679
 C10 C 0.26353 0.34076 0.03186
 C11 C 0.27718 0.32708 0.02055
 C12 C 0.35150 0.30305 0.02009
 C13 C 0.36579 0.29029 0.03160
 C14 C 0.35823 0.27581 0.04706
 C15 C 0.33634 0.27427 0.05112
 C16 C 0.32203 0.28699 0.03958
 C17 C 0.32646 0.27727 -0.01999
 C18 C 0.33987 0.26346 -0.03145
 C19 C 0.35430 0.27166 -0.04666
 C20 C 0.35502 0.29369 -0.05057
 C21 C 0.34164 0.30747 -0.03910
 C22 C 0.28676 0.32224 -0.03913
 C23 C 0.27432 0.33657 -0.05096
 C24 C 0.27606 0.35854 -0.04722
 C25 C 0.29038 0.36616 -0.03171
 C26 C 0.30285 0.35185 -0.01989
 H27 H 0.32441 0.34325 0.04224
 H28 H 0.30034 0.36720 0.06218
 H29 H 0.24656 0.34010 0.02882
 H30 H 0.27057 0.31595 0.00897
 H31 H 0.35759 0.31427 0.00827
 H32 H 0.38270 0.29168 0.02842
 H33 H 0.30512 0.28549 0.04273
 H34 H 0.31541 0.27072 -0.00827
 H35 H 0.33905 0.24646 -0.02828
 H36 H 0.36606 0.30030 -0.06231
 H37 H 0.34263 0.32448 -0.04206
 H38 H 0.28517 0.30527 -0.04210
 H39 H 0.26332 0.33053 -0.06298
 H40 H 0.29191 0.38314 -0.02877
 H41 H 0.31399 0.35798 -0.00808
 H42 H 0.33034 0.26316 0.06312
 C43 C 0.68724 0.68790 -0.01233
 C44 C 0.68693 0.68755 0.00974
 C45 C 0.70001 0.67210 0.02218
 C46 C 0.67318 0.70226 0.02246
 C47 C 0.67185 0.70095 -0.02489
 C48 C 0.70257 0.67470 -0.02490
 C49 C 0.69837 0.65005 0.01829
 C50 C 0.71123 0.63568 0.02959
 C51 C 0.72565 0.64318 0.04507
 C52 C 0.72700 0.66508 0.04939
 C53 C 0.71417 0.67947 0.03806
 C54 C 0.65901 0.69395 0.03791
 C55 C 0.64542 0.70752 0.04939
 C56 C 0.64597 0.72955 0.04568
 C57 C 0.66041 0.73802 0.03068
 C58 C 0.67404 0.72446 0.01919
 C59 C 0.67927 0.71556 -0.04039
 C60 C 0.66491 0.72836 -0.05180
 C61 C 0.64301 0.72652 -0.04795
 C62 C 0.63549 0.71163 -0.03287
 C63 C 0.64981 0.69882 -0.02148
 C64 C 0.72457 0.67600 -0.02097
 C65 C 0.73869 0.66241 -0.03178
 C66 C 0.73099 0.64758 -0.04680
 C67 C 0.70916 0.64671 -0.05130
 C68 C 0.69503 0.66027 -0.04048
 H69 H 0.68724 0.64401 0.00641
 H70 H 0.70996 0.61876 0.02623
 H71 H 0.73804 0.67103 0.06140
 H72 H 0.71554 0.69639 0.04139
 H73 H 0.65817 0.67690 0.04074
 H74 H 0.63432 0.70081 0.06099
 H75 H 0.68512 0.73122 0.00762
 H76 H 0.69619 0.71732 -0.04335
 H77 H 0.67089 0.73978 -0.06349
 H78 H 0.61856 0.71001 -0.02985
 H79 H 0.64375 0.68734 -0.00990
 H80 H 0.73074 0.68726 -0.00926
 H81 H 0.75556 0.66327 -0.02823
 H82 H 0.70304 0.63532 -0.06292
 H83 H 0.67814 0.65907 -0.04379
 H84 H 0.66102 0.75506 0.02774
 C85 C 0.68905 0.31026 1.01008
 C86 C 0.68898 0.30954 0.98803
 C87 C 0.70429 0.32229 0.97502
 C88 C 0.67307 0.29672 0.97590
 C89 C 0.67524 0.29608 1.02329
 C90 C 0.70259 0.32569 1.02205
 C91 C 0.69669 0.33667 0.95942
 C92 C 0.71083 0.34996 0.94830
 C93 C 0.73268 0.34889 0.95254
 C94 C 0.74045 0.33408 0.96754
 C95 C 0.72633 0.32073 0.97864
 C96 C 0.65115 0.29944 0.97963
 C97 C 0.63632 0.28721 0.96825
 C98 C 0.64323 0.27230 0.95289
 C99 C 0.66502 0.26979 0.94881
 C100 C 0.67988 0.28201 0.96020
 C101 C 0.67549 0.27382 1.02033
 C102 C 0.66194 0.26075 1.03247
 C103 C 0.64819 0.26979 1.04780
 C104 C 0.64821 0.29188 1.05116
 C105 C 0.66172 0.30495 1.03903
 C106 C 0.71680 0.31835 1.03790
 C107 C 0.72989 0.33272 1.04893
 C108 C 0.72877 0.35460 1.04434
 C109 C 0.71433 0.36206 1.02885
 C110 C 0.70121 0.34770 1.01785
 H111 H 0.67977 0.33807 0.95636
 H112 H 0.70467 0.36136 0.93670
 H113 H 0.75734 0.33308 0.97088
 H114 H 0.73252 0.30950 0.99037
 H115 H 0.64555 0.31104 0.99133
 H116 H 0.61948 0.28937 0.97142
 H117 H 0.69670 0.27982 0.95698
 H118 H 0.68608 0.26663 1.00856
 H119 H 0.66209 0.24366 1.02982
 H120 H 0.63765 0.29901 1.06301
 H121 H 0.66135 0.32205 1.04162
 H122 H 0.71796 0.30146 1.04146
 H123 H 0.74092 0.32674 1.06097
 H124 H 0.71319 0.37896 1.02524
 H125 H 0.69004 0.35372 1.00600
 H126 H 0.67052 0.25836 0.93689
 C127 C 0.31599 0.68516 1.01273
 C128 C 0.31594 0.68526 0.99066
 C129 C 0.30287 0.66993 0.97806
 C130 C 0.32935 0.70038 0.97806
 C131 C 0.33129 0.69832 1.02527
 C132 C 0.30106 0.67156 1.02534
 C133 C 0.30477 0.64782 0.98146
 C134 C 0.29212 0.63355 0.96980
 C135 C 0.27763 0.64121 0.95447
 C136 C 0.27597 0.66318 0.95070
 C137 C 0.28860 0.67748 0.96237
 C138 C 0.34357 0.69252 0.96241
 C139 C 0.35691 0.70648 0.95109
 C140 C 0.35604 0.72844 0.95516
 C141 C 0.34154 0.73646 0.97036
 C142 C 0.32816 0.72251 0.98168
 C143 C 0.32377 0.71268 1.04098
 C144 C 0.33800 0.72569 1.05229
 C145 C 0.35990 0.72433 1.04813
 C146 C 0.36754 0.70966 1.03287
 C147 C 0.35332 0.69663 1.02159
 C148 C 0.27897 0.67261 1.02184
 C149 C 0.26519 0.65898 1.03304
 C150 C 0.27333 0.64431 1.04802
 C151 C 0.29527 0.64361 1.05199
 C152 C 0.30905 0.65722 1.04078
 H153 H 0.31599 0.64166 0.99319
 H154 H 0.29361 0.61656 0.97274
 H155 H 0.26485 0.66926 0.93882
 H156 H 0.28702 0.69445 0.95942
 H157 H 0.34467 0.67554 0.95931
 H158 H 0.36806 0.70011 0.93935
 H159 H 0.31704 0.72893 0.99342
 H160 H 0.30686 0.71409 1.04415
 H161 H 0.33189 0.73692 1.06412
 H162 H 0.38445 0.70834 1.02958
 H163 H 0.35945 0.68535 1.00984
 H164 H 0.27246 0.68382 1.01028
 H165 H 0.24824 0.65977 1.02987
 H166 H 0.30180 0.63237 1.06355
 H167 H 0.32601 0.65623 1.04377
 H168 H 0.34068 0.75344 0.97358
 C169 C -0.01228 0.31469 0.31308
 C170 C 0.00943 0.31468 0.31346
 C171 C 0.02154 0.30127 0.32900
 C172 C 0.02217 0.32844 0.29871
 C173 C -0.02445 0.33003 0.29957
 C174 C -0.02496 0.29972 0.32659
 C175 C 0.01781 0.30279 0.35139
 C176 C 0.02909 0.28987 0.36581
 C177 C 0.04435 0.27548 0.35802
 C178 C 0.04842 0.27419 0.33578
 C179 C 0.03713 0.28708 0.32134
 C180 C 0.03743 0.34241 0.30735
 C181 C 0.04904 0.35594 0.29377
 C182 C 0.04565 0.35554 0.27140
 C183 C 0.03080 0.34132 0.26260
 C184 C 0.01919 0.32774 0.27617
 C185 C -0.03973 0.32247 0.28491
 C186 C -0.05112 0.33673 0.27195
 C187 C -0.04745 0.35873 0.27364
 C188 C -0.03249 0.36641 0.28852
 C189 C -0.02113 0.35214 0.30151
 C190 C -0.02161 0.27755 0.32549
 C191 C -0.03305 0.26375 0.33898
 C192 C -0.04810 0.27197 0.35355
 C193 C -0.05188 0.29399 0.35430
 C194 C -0.04044 0.30778 0.34084
 H195 H 0.00615 0.31395 0.35765
 H196 H 0.02590 0.29108 0.38300
 H197 H 0.06025 0.26316 0.32960
 H198 H 0.04033 0.28579 0.30416
 H199 H 0.04003 0.34313 0.32465
 H200 H 0.06052 0.36685 0.30074
 H201 H 0.00777 0.31681 0.26915
 H202 H -0.04262 0.30550 0.28331
 H203 H -0.06270 0.33057 0.26056
 H204 H -0.02959 0.38339 0.29010
 H205 H -0.00973 0.35832 0.31304
 H206 H -0.01000 0.27099 0.31434
 H207 H -0.03001 0.24674 0.33817
 H208 H -0.06348 0.30057 0.36547
 H209 H -0.04331 0.32480 0.34187
 H210 H 0.02813 0.34082 0.24529
 C211 C -0.01302 0.68637 0.68906
 C212 C 0.00868 0.68683 0.68831
 C213 C 0.02033 0.70042 0.67255
 C214 C 0.02190 0.67328 0.70274
 C215 C -0.02467 0.67075 0.70274
 C216 C -0.02615 0.70107 0.67575
 C217 C 0.01649 0.69865 0.65023
 C218 C 0.02768 0.71143 0.63556
 C219 C 0.04293 0.72593 0.64306
 C220 C 0.04702 0.72757 0.66525
 C221 C 0.03583 0.71482 0.67993
 C222 C 0.03736 0.65974 0.69371
 C223 C 0.04960 0.64654 0.70698
 C224 C 0.04662 0.64684 0.72942
 C225 C 0.03151 0.66058 0.73860
 C226 C 0.01927 0.67385 0.72533
 C227 C -0.03987 0.67796 0.71774
 C228 C -0.05071 0.66343 0.73092
 C229 C -0.04658 0.64153 0.72910
 C230 C -0.03172 0.63420 0.71388
 C231 C -0.02091 0.64872 0.70067
 C232 C -0.02312 0.72329 0.67666
 C233 C -0.03490 0.73683 0.66326
 C234 C -0.04999 0.72831 0.64901
 C235 C -0.05349 0.70623 0.64848
 C236 C -0.04169 0.69270 0.66183
 H237 H 0.00491 0.68732 0.64419
 H238 H 0.02451 0.70994 0.61840
 H239 H 0.05886 0.73869 0.67120
 H240 H 0.03912 0.71628 0.69706
 H241 H 0.03970 0.65913 0.67635
 H242 H 0.06127 0.63598 0.69973
 H243 H 0.00770 0.68446 0.73264
 H244 H -0.04309 0.69487 0.71944
 H245 H -0.06222 0.66932 0.74258
 H246 H -0.02847 0.61728 0.71220
 H247 H -0.00956 0.64282 0.68888
 H248 H -0.01147 0.73009 0.68757
 H249 H -0.03208 0.75389 0.66390
 H250 H -0.06515 0.69942 0.63756
 H251 H -0.04433 0.67563 0.66095
 H252 H 0.02915 0.66098 0.75597
 C253 C 1.00955 0.68515 0.31318
 C254 C 0.98784 0.68489 0.31296
 C255 C 0.97506 0.69963 0.32663
 C256 C 0.97577 0.66943 0.29950
 C257 C 1.02232 0.67156 0.29833
 C258 C 1.02163 0.69862 0.32867
 C259 C 0.95962 0.69131 0.34077
 C260 C 0.94801 0.70489 0.35430
 C261 C 0.95161 0.72692 0.35374
 C262 C 0.96663 0.73541 0.33935
 C263 C 0.97823 0.72184 0.32575
 C264 C 0.97928 0.64735 0.30147
 C265 C 0.96787 0.63297 0.28866
 C266 C 0.95272 0.64051 0.27393
 C267 C 0.94892 0.66245 0.27215
 C268 C 0.96032 0.67685 0.28494
 C269 C 1.01925 0.67233 0.27582
 C270 C 1.03099 0.65896 0.26213
 C271 C 1.04607 0.64489 0.27082
 C272 C 1.04952 0.64442 0.29320
 C273 C 1.03776 0.65773 0.30686
 C274 C 1.03715 0.71285 0.32095
 C275 C 1.04859 0.72564 0.33534
 C276 C 1.04475 0.72420 0.35763
 C277 C 1.02951 0.70980 0.36547
 C278 C 1.01809 0.69698 0.35108
 H279 H 0.95687 0.67427 0.34162
 H280 H 0.93639 0.69817 0.36535
 H281 H 0.96947 0.75245 0.33873
 H282 H 0.98979 0.72860 0.31468
 H283 H 0.99081 0.64129 0.31293
 H284 H 0.97084 0.61601 0.29025
 H285 H 0.95729 0.69379 0.28332
 H286 H 1.00768 0.68316 0.26889
 H287 H 1.02823 0.65956 0.24484
 H288 H 1.06115 0.63364 0.30013
 H289 H 1.04043 0.65698 0.32415
 H290 H 1.04022 0.71420 0.30375
 H291 H 1.06040 0.73665 0.32906
 H292 H 1.02647 0.70843 0.38269
 H293 H 1.00650 0.68578 0.35738
 H294 H 0.93717 0.66843 0.26085
 C295 C 1.01128 0.31540 0.68450
 C296 C 0.98956 0.31542 0.68490
 C297 C 0.97694 0.30223 0.66961
 C298 C 0.97739 0.32898 0.70030
 C299 C 1.02391 0.33072 0.69758
 C300 C 1.02346 0.30038 0.67057
 C301 C 0.98006 0.30396 0.64714
 C302 C 0.96844 0.29113 0.63293
 C303 C 0.95344 0.27663 0.64100
 C304 C 0.94991 0.27518 0.66333
 C305 C 0.96154 0.28798 0.67757
 C306 C 0.96188 0.34314 0.69245
 C307 C 0.95088 0.35656 0.70665
 C308 C 0.95513 0.35586 0.72886
 C309 C 0.97021 0.34143 0.73688
 C310 C 0.98122 0.32797 0.72268
 C311 C 1.03973 0.32316 0.71165
 C312 C 1.05156 0.33743 0.72419
 C313 C 1.04781 0.35941 0.72264
 C314 C 1.03231 0.36709 0.70837
 C315 C 1.02048 0.35283 0.69582
 C316 C 1.02007 0.27823 0.67184
 C317 C 1.03108 0.26435 0.65806
 C318 C 1.04570 0.27247 0.64301
 C319 C 1.04949 0.29449 0.64202
 C320 C 1.03850 0.30835 0.65579
 H321 H 0.99154 0.31517 0.64066
 H322 H 0.97119 0.29246 0.61567
 H323 H 0.93828 0.26407 0.66973
 H324 H 0.95880 0.28655 0.69481
 H325 H 0.95862 0.34409 0.67527
 H326 H 0.93923 0.36765 0.70029
 H327 H 0.99284 0.31689 0.72910
 H328 H 1.04271 0.30619 0.71312
 H329 H 1.06357 0.33134 0.73512
 H330 H 1.02937 0.38407 0.70695
 H331 H 1.00865 0.35901 0.68474
 H332 H 1.00880 0.27174 0.68338
 H333 H 1.02806 0.24734 0.65907
 H334 H 1.06078 0.30099 0.63049
 H335 H 1.04140 0.32536 0.65464
 H336 H 0.97355 0.34069 0.75405
 C337 C 0.31343 -0.01194 0.31235
 C338 C 0.31329 0.00982 0.31256
 C339 C 0.32859 0.02242 0.29939
 C340 C 0.29835 0.02213 0.32647
 C341 C 0.30032 -0.02458 0.32773
 C342 C 0.32727 -0.02419 0.29726
 C343 C 0.35065 0.01922 0.30143
 C344 C 0.36489 0.03103 0.28881
 C345 C 0.35723 0.04630 0.27424
 C346 C 0.33530 0.04985 0.27242
 C347 C 0.32104 0.03802 0.28501
 C348 C 0.30637 0.03759 0.34075
 C349 C 0.29262 0.04895 0.35430
 C350 C 0.27067 0.04512 0.35362
 C351 C 0.26249 0.03002 0.33914
 C352 C 0.27625 0.01864 0.32554
 C353 C 0.28632 -0.04023 0.31987
 C354 C 0.27383 -0.05213 0.33421
 C355 C 0.27535 -0.04862 0.35652
 C356 C 0.28954 -0.03329 0.36448
 C357 C 0.30205 -0.02140 0.35017
 C358 C 0.32651 -0.02062 0.27481
 C359 C 0.34027 -0.03164 0.26092
 C360 C 0.35476 -0.04650 0.26931
 C361 C 0.35519 -0.05049 0.29161
 C362 C 0.34147 -0.03946 0.30548
 H363 H 0.35679 0.00758 0.31276
 H364 H 0.38184 0.02827 0.29043
 H365 H 0.32924 0.06170 0.26125
 H366 H 0.30410 0.04083 0.28336
 H367 H 0.32333 0.04059 0.34166
 H368 H 0.29911 0.06061 0.36543
 H369 H 0.26971 0.00706 0.31437
 H370 H 0.28491 -0.04302 0.30264
 H371 H 0.26295 -0.06401 0.32790
 H372 H 0.29092 -0.03055 0.38173
 H373 H 0.31308 -0.00971 0.35656
 H374 H 0.31541 -0.00918 0.26811
 H375 H 0.33969 -0.02845 0.24370
 H376 H 0.36629 -0.06195 0.29833
 H377 H 0.34225 -0.04250 0.32272
 H378 H 0.24552 0.02700 0.33843
 C379 C 0.68370 -0.00978 0.68550
 C380 C 0.68388 0.01199 0.68529
 C381 C 0.66848 0.02464 0.69830
 C382 C 0.69910 0.02423 0.67164
 C383 C 0.69699 -0.02243 0.67030
 C384 C 0.66983 -0.02200 0.70058
 C385 C 0.64644 0.02136 0.69618
 C386 C 0.63211 0.03309 0.70878
 C387 C 0.63965 0.04836 0.72341
 C388 C 0.66156 0.05201 0.72527
 C389 C 0.67591 0.04027 0.71271
 C390 C 0.69142 0.03964 0.65712
 C391 C 0.70547 0.05078 0.64369
 C392 C 0.72737 0.04677 0.64475
 C393 C 0.73521 0.03177 0.65952
 C394 C 0.72116 0.02063 0.67300
 C395 C 0.71095 -0.03803 0.67834
 C396 C 0.72373 -0.04983 0.66418
 C397 C 0.72255 -0.04627 0.64185
 C398 C 0.70839 -0.03102 0.63370
 C399 C 0.69558 -0.01923 0.64783
 C400 C 0.67053 -0.01838 0.72302
 C401 C 0.65686 -0.02950 0.73692
 C402 C 0.64250 -0.04449 0.72854
 C403 C 0.64209 -0.04849 0.70625
 C404 C 0.65573 -0.03738 0.69236
 H405 H 0.64037 0.00968 0.68484
 H406 H 0.61517 0.03024 0.70713
 H407 H 0.66754 0.06385 0.73650
 H408 H 0.69283 0.04313 0.71443
 H409 H 0.67449 0.04273 0.65590
 H410 H 0.69924 0.06238 0.63234
 H411 H 0.72744 0.00909 0.68437
 H412 H 0.71214 -0.04084 0.69558
 H413 H 0.73459 -0.06166 0.67064
 H414 H 0.70727 -0.02825 0.61643
 H415 H 0.68460 -0.00758 0.64129
 H416 H 0.68155 -0.00686 0.72972
 H417 H 0.65743 -0.02630 0.75414
 H418 H 0.63110 -0.06007 0.69954
 H419 H 0.65501 -0.04047 0.67513
 H420 H 0.75214 0.02861 0.66053
 C421 C 0.31172 1.01004 0.68671
 C422 C 0.31185 0.98826 0.68682
 C423 C 0.32551 0.97600 0.70199
 C424 C 0.29882 0.97568 0.67137
 C425 C 0.29667 1.02237 0.67302
 C426 C 0.32705 1.02258 0.69984
 C427 C 0.33982 0.96073 0.69386
 C428 C 0.35347 0.94981 0.70783
 C429 C 0.35284 0.95391 0.73009
 C430 C 0.33823 0.96870 0.73839
 C431 C 0.32454 0.97961 0.72443
 C432 C 0.30053 0.97910 0.64895
 C433 C 0.28798 0.96738 0.63458
 C434 C 0.27379 0.95198 0.64244
 C435 C 0.27231 0.94820 0.66472
 C436 C 0.28483 0.95994 0.67912
 C437 C 0.27460 1.01867 0.67407
 C438 C 0.26073 1.02991 0.66055
 C439 C 0.26876 1.04510 0.64605
 C440 C 0.29065 1.04920 0.64530
 C441 C 0.30453 1.03795 0.65876
 C442 C 0.31956 1.03814 0.71434
 C443 C 0.33385 1.04981 0.72698
 C444 C 0.35577 1.04616 0.72510
 C445 C 0.36338 1.03095 0.71040
 C446 C 0.34910 1.01929 0.69774
 H447 H 0.34075 0.95765 0.67664
 H448 H 0.36469 0.93838 0.70125
 H449 H 0.33757 0.97192 0.75560
 H450 H 0.31336 0.99105 0.73105
 H451 H 0.31154 0.99086 0.64263
 H452 H 0.28933 0.97032 0.61735
 H453 H 0.28342 0.95697 0.69633
 H454 H 0.26818 1.00700 0.68523
 H455 H 0.24380 1.02669 0.66132
 H456 H 0.29702 1.06096 0.63418
 H457 H 0.32146 1.04111 0.65777
 H458 H 0.30263 1.04101 0.71606
 H459 H 0.32782 1.06160 0.73826
 H460 H 0.38032 1.02811 0.70873
 H461 H 0.35522 1.00767 0.68633
 H462 H 0.26143 0.93626 0.67095
 C463 C 0.68529 1.01041 0.31564
 C464 C 0.68532 0.98864 0.31530
 C465 C 0.67179 0.97645 0.29996
 C466 C 0.69845 0.97600 0.33061
 C467 C 0.70038 1.02267 0.32934
 C468 C 0.66987 1.02299 0.30266
 C469 C 0.65757 0.96099 0.30786
 C470 C 0.64406 0.95013 0.29370
 C471 C 0.64475 0.95447 0.27149
 C472 C 0.65927 0.96945 0.26342
 C473 C 0.67282 0.98032 0.27757
 C474 C 0.69677 0.97922 0.35306
 C475 C 0.70947 0.96750 0.36730
 C476 C 0.72377 0.95229 0.35927
 C477 C 0.72521 0.94870 0.33696
 C478 C 0.71255 0.96043 0.32269
 C479 C 0.72246 1.01917 0.32796
 C480 C 0.73640 1.03028 0.34150
 C481 C 0.72843 1.04514 0.35641
 C482 C 0.70649 1.04904 0.35749
 C483 C 0.69255 1.03794 0.34397
 C484 C 0.67725 1.03878 0.28837
 C485 C 0.66288 1.05037 0.27575
 C486 C 0.64100 1.04641 0.27744
 C487 C 0.63350 1.03101 0.29198
 C488 C 0.64785 1.01943 0.30463
 H489 H 0.65660 0.95771 0.32504
 H490 H 0.63290 0.93853 0.30010
 H491 H 0.66000 0.97286 0.24625
 H492 H 0.68394 0.99192 0.27112
 H493 H 0.68568 0.99085 0.35951
 H494 H 0.70815 0.97031 0.38455
 H495 H 0.71395 0.95762 0.30546
 H496 H 0.72883 1.00774 0.31651
 H497 H 0.75335 1.02717 0.34042
 H498 H 0.70010 1.06052 0.36892
 H499 H 0.67561 1.04093 0.34521
 H500 H 0.69415 1.04186 0.28676
 H501 H 0.66883 1.06233 0.26460
 H502 H 0.61659 1.02792 0.29349
 H503 H 0.64182 1.00763 0.31588
 H504 H 0.73619 0.93691 0.33059
 O505 O 0.87046 0.84028 0.48037
 O506 O 0.84038 0.86944 0.52221
 O507 O 0.87026 0.84049 0.52261
 O508 O 0.84057 0.86922 0.48032
 O509 O 0.81610 0.84382 0.48040
 O510 O 0.84576 0.81514 0.52266
 O511 O 0.81591 0.84404 0.52225
 O512 O 0.84597 0.81493 0.48046
 Cu513 Cu 0.85795 0.85737 0.50137
 Cu514 Cu 0.82852 0.82686 0.50145
 C515 C 0.86326 0.82270 0.47333
 C516 C 0.82295 0.86177 0.52910
 C517 C 0.86298 0.82298 0.52980
 C518 C 0.82320 0.86148 0.47341
 O519 O 0.15437 0.12571 0.52018
 O520 O 0.12580 0.15616 0.47826
 O521 O 0.15487 0.12628 0.47797
 O522 O 0.12526 0.15544 0.52022
 O523 O 0.15044 0.18012 0.52083
 O524 O 0.18000 0.15100 0.47865
 O525 O 0.15099 0.18083 0.47893
 O526 O 0.17949 0.15044 0.52078
 Cu527 Cu 0.13757 0.13836 0.49907
 Cu528 Cu 0.16780 0.16804 0.49984
 C529 C 0.17176 0.13297 0.52756
 C530 C 0.13347 0.17376 0.47171
 C531 C 0.17247 0.13370 0.47123
 C532 C 0.13279 0.17279 0.52752
 O533 O 0.15926 0.86787 0.47801
 O534 O 0.12890 0.83940 0.52007
 O535 O 0.15888 0.86828 0.52001
 O536 O 0.12924 0.83902 0.47809
 O537 O 0.15364 0.81356 0.47850
 O538 O 0.18327 0.84281 0.52040
 O539 O 0.15331 0.81395 0.52045
 O540 O 0.18364 0.84239 0.47843
 Cu541 Cu 0.14161 0.85623 0.49900
 Cu542 Cu 0.17093 0.82561 0.49948
 C543 C 0.17666 0.86001 0.47125
 C544 C 0.13591 0.82178 0.52723
 C545 C 0.17616 0.86055 0.52716
 C546 C 0.13635 0.82127 0.47136
 O547 O 0.87283 0.15764 0.52005
 O548 O 0.84418 0.12664 0.47865
 O549 O 0.87292 0.15672 0.47801
 O550 O 0.84415 0.12745 0.52073
 O551 O 0.81870 0.15185 0.52023
 O552 O 0.84745 0.18110 0.47755
 O553 O 0.81874 0.15106 0.47820
 O554 O 0.84734 0.18201 0.51954
 Cu555 Cu 0.86109 0.13964 0.49942
 Cu556 Cu 0.83048 0.16895 0.49884
 C557 C 0.86498 0.17513 0.52666
 C558 C 0.82658 0.13360 0.47151
 C559 C 0.86509 0.17391 0.47066
 C560 C 0.82650 0.13465 0.52760
 O561 O 0.47884 0.87533 0.84573
 O562 O 0.52042 0.84482 0.87417
 O563 O 0.52029 0.87508 0.84512
 O564 O 0.47904 0.84531 0.87495
 O565 O 0.47849 0.82094 0.84906
 O566 O 0.51971 0.85071 0.81924
 O567 O 0.51982 0.82048 0.84825
 O568 O 0.47831 0.85092 0.81988
 Cu569 Cu 0.49972 0.86261 0.86260
 Cu570 Cu 0.49904 0.83332 0.83149
 C571 C 0.47158 0.86827 0.82797
 C572 C 0.52704 0.82742 0.86606
 C573 C 0.52691 0.86796 0.82711
 C574 C 0.47187 0.82806 0.86708
 O575 O 0.52179 0.15907 0.13007
 O576 O 0.47936 0.13041 0.15923
 O577 O 0.48032 0.15991 0.12940
 O578 O 0.52064 0.12973 0.15995
 O579 O 0.52059 0.15473 0.18523
 O580 O 0.48031 0.18486 0.15472
 O581 O 0.47935 0.15539 0.18453
 O582 O 0.52174 0.18404 0.15537
 Cu583 Cu 0.50051 0.14228 0.14207
 Cu584 Cu 0.50048 0.17231 0.17249
 C585 C 0.52893 0.17639 0.13781
 C586 C 0.47235 0.13796 0.17691
 C587 C 0.47355 0.17751 0.13689
 C588 C 0.52731 0.13709 0.17782
 O589 O 0.47683 0.15872 0.87160
 O590 O 0.51837 0.13037 0.84085
 O591 O 0.51826 0.15948 0.87105
 O592 O 0.47707 0.12975 0.84127
 O593 O 0.47646 0.15506 0.81634
 O594 O 0.51760 0.18475 0.84608
 O595 O 0.51773 0.15566 0.81590
 O596 O 0.47621 0.18401 0.84663
 Cu597 Cu 0.49770 0.14204 0.85874
 Cu598 Cu 0.49693 0.17245 0.82874
 C599 C 0.46955 0.17619 0.86433
 C600 C 0.52493 0.13814 0.82310
 C601 C 0.52483 0.17717 0.86361
 C602 C 0.46994 0.13732 0.82369
 O603 O 0.47988 0.84389 0.12537
 O604 O 0.52070 0.87501 0.15428
 O605 O 0.52125 0.84478 0.12527
 O606 O 0.47924 0.87429 0.15428
 O607 O 0.47969 0.85007 0.18030
 O608 O 0.52167 0.82057 0.15132
 O609 O 0.52109 0.85075 0.18028
 O610 O 0.48035 0.81971 0.15144
 Cu611 Cu 0.50021 0.86195 0.13718
 Cu612 Cu 0.50073 0.83285 0.16848
 C613 C 0.47333 0.82648 0.13348
 C614 C 0.52776 0.86812 0.17218
 C615 C 0.52847 0.82764 0.13336
 C616 C 0.47243 0.86720 0.17222
 O617 O 0.87612 0.51981 0.84833
 O618 O 0.84744 0.47814 0.87877
 O619 O 0.87646 0.47838 0.84855
 O620 O 0.84716 0.51985 0.87869
 O621 O 0.82200 0.51956 0.85372
 O622 O 0.85124 0.47815 0.82362
 O623 O 0.82229 0.47793 0.85379
 O624 O 0.85088 0.51951 0.82343
 Cu625 Cu 0.86430 0.49909 0.86616
 Cu626 Cu 0.83401 0.49877 0.83618
 C627 C 0.86841 0.52656 0.83065
 C628 C 0.83006 0.47094 0.87133
 C629 C 0.86885 0.47137 0.83093
 C630 C 0.82965 0.52674 0.87125
 O631 O 0.15613 0.48009 0.12615
 O632 O 0.12682 0.52178 0.15592
 O633 O 0.15639 0.52160 0.12619
 O634 O 0.12665 0.48016 0.15596
 O635 O 0.15147 0.48008 0.18130
 O636 O 0.18114 0.52143 0.15159
 O637 O 0.15162 0.52162 0.18126
 O638 O 0.18089 0.48000 0.15154
 Cu639 Cu 0.13897 0.50092 0.13851
 Cu640 Cu 0.16876 0.50077 0.16900
 C641 C 0.17351 0.47309 0.13378
 C642 C 0.13428 0.52871 0.17363
 C643 C 0.17384 0.52843 0.13384
 C644 C 0.13406 0.47315 0.17368
 O645 O 0.84165 0.51984 0.12572
 O646 O 0.87105 0.47848 0.15576
 O647 O 0.84225 0.47829 0.12536
 O648 O 0.87059 0.51989 0.15602
 O649 O 0.84526 0.51937 0.18094
 O650 O 0.81694 0.47781 0.15029
 O651 O 0.84570 0.47801 0.18065
 O652 O 0.81637 0.51931 0.15068
 Cu653 Cu 0.85893 0.49918 0.13817
 Cu654 Cu 0.82849 0.49858 0.16813
 C655 C 0.82400 0.52650 0.13312
 C656 C 0.86341 0.47140 0.17337
 C657 C 0.82478 0.47107 0.13263
 C658 C 0.86280 0.52650 0.17375
 O659 O 0.16143 0.52111 0.86970
 O660 O 0.13171 0.48048 0.83899
 O661 O 0.16130 0.47974 0.86862
 O662 O 0.13172 0.52205 0.84029
 O663 O 0.15641 0.52269 0.81473
 O664 O 0.18599 0.48039 0.84305
 O665 O 0.15642 0.48116 0.81345
 O666 O 0.18609 0.52173 0.84410
 Cu667 Cu 0.14401 0.50076 0.85695
 Cu668 Cu 0.17368 0.50154 0.82622
 C669 C 0.17886 0.52815 0.86214
 C670 C 0.13903 0.47402 0.82100
 C671 C 0.17875 0.47310 0.86074
 C672 C 0.13908 0.52950 0.82272
 C673 C 0.20807 0.42869 0.10024
 C674 C 0.22637 0.43545 0.08869
 C675 C 0.23907 0.42023 0.07750
 C676 C 0.23341 0.39835 0.07794
 C677 C 0.21498 0.39164 0.08928
 C678 C 0.20227 0.40685 0.10047
 C679 C 0.18396 0.39976 0.11175
 C680 C 0.17835 0.37823 0.11196
 C681 C 0.19076 0.36336 0.10101
 C682 C 0.20889 0.36989 0.08978
 C683 C 0.25732 0.42736 0.06611
 C684 C 0.26286 0.44890 0.06579
 C685 C 0.25044 0.46378 0.07673
 C686 C 0.23239 0.45723 0.08806
 C687 C 0.24669 0.38279 0.06692
 C688 C 0.25799 0.37010 0.05777
 C689 C 0.19544 0.44420 0.11210
 C690 C 0.18525 0.45727 0.12199
 H691 H 0.17379 0.41074 0.12049
 H692 H 0.16428 0.37308 0.12066
 H693 H 0.18633 0.34666 0.10122
 H694 H 0.21804 0.35773 0.08149
 H695 H 0.26749 0.41640 0.05734
 H696 H 0.27687 0.45407 0.05700
 H697 H 0.25482 0.48048 0.07644
 H698 H 0.22323 0.46941 0.09629
 C699 C 0.78941 0.57113 0.10005
 C700 C 0.79077 0.57259 0.07722
 C701 C 0.77793 0.58759 0.06593
 C702 C 0.76378 0.60098 0.07753
 C703 C 0.76256 0.59965 0.10037
 C704 C 0.77542 0.58469 0.11166
 C705 C 0.77389 0.58364 0.13450
 C706 C 0.76006 0.59698 0.14584
 C707 C 0.74748 0.61159 0.13480
 C708 C 0.74865 0.61299 0.11232
 C709 C 0.77958 0.58877 0.04311
 C710 C 0.79352 0.57553 0.03177
 C711 C 0.80602 0.56083 0.04281
 C712 C 0.80473 0.55931 0.06527
 C713 C 0.75034 0.61599 0.06599
 C714 C 0.73909 0.62841 0.05646
 C715 C 0.80207 0.55544 0.11159
 C716 C 0.81227 0.54230 0.12134
 H717 H 0.78337 0.57254 0.14382
 H718 H 0.75909 0.59595 0.16330
 H719 H 0.73675 0.62192 0.14368
 H720 H 0.73856 0.62463 0.10446
 H721 H 0.77018 0.59994 0.03380
 H722 H 0.79464 0.57670 0.01433
 H723 H 0.81681 0.55057 0.03392
 H724 H 0.81481 0.54766 0.07314
 C725 C 0.79731 0.42373 0.90269
 C726 C 0.78746 0.40762 0.89012
 C727 C 0.77494 0.39165 0.90038
 C728 C 0.77236 0.39187 0.92313
 C729 C 0.78260 0.40769 0.93575
 C730 C 0.79509 0.42369 0.92549
 C731 C 0.80505 0.43943 0.93842
 C732 C 0.80278 0.43931 0.96086
 C733 C 0.79061 0.42363 0.97090
 C734 C 0.78057 0.40798 0.95857
 C735 C 0.76514 0.37580 0.88747
 C736 C 0.76767 0.37570 0.86507
 C737 C 0.77993 0.39130 0.85503
 C738 C 0.78975 0.40712 0.86733
 C739 C 0.75866 0.37624 0.93348
 C740 C 0.74698 0.36356 0.94210
 C741 C 0.80929 0.44056 0.89206
 C742 C 0.81894 0.45449 0.88282
 H743 H 0.81471 0.45192 0.93135
 H744 H 0.81054 0.45145 0.97052
 H745 H 0.78896 0.42357 0.98834
 H746 H 0.77129 0.39611 0.96712
 H747 H 0.75547 0.36330 0.89454
 H748 H 0.76008 0.36344 0.85545
 H749 H 0.78186 0.39115 0.83762
 H750 H 0.79914 0.41889 0.85877
 C751 C 0.21424 0.57062 0.89716
 C752 C 0.21048 0.59286 0.89569
 C753 C 0.22339 0.60733 0.90757
 C754 C 0.23997 0.59947 0.92086
 C755 C 0.24363 0.57722 0.92247
 C756 C 0.23073 0.56275 0.91057
 C757 C 0.23475 0.54058 0.91237
 C758 C 0.25103 0.53293 0.92554
 C759 C 0.26361 0.54707 0.93720
 C760 C 0.26002 0.56898 0.93575
 C761 C 0.21936 0.62949 0.90580
 C762 C 0.20304 0.63714 0.89268
 C763 C 0.19042 0.62299 0.88106
 C764 C 0.19402 0.60109 0.88249
 C765 C 0.25332 0.61426 0.93278
 C766 C 0.26442 0.62654 0.94266
 C767 C 0.20134 0.55583 0.88473
 C768 C 0.19089 0.54335 0.87439
 H769 H 0.22538 0.52893 0.90365
 H770 H 0.25392 0.51593 0.92668
 H771 H 0.27623 0.54105 0.94742
 H772 H 0.27023 0.57935 0.94513
 H773 H 0.22874 0.64113 0.91453
 H774 H 0.20017 0.65414 0.89151
 H775 H 0.17776 0.62901 0.87088
 H776 H 0.18378 0.59071 0.87315
 C777 C 0.10005 0.21039 0.42878
 C778 C 0.08460 0.22480 0.43693
 C779 C 0.07309 0.23812 0.42246
 C780 C 0.07710 0.23696 0.39993
 C781 C 0.09247 0.22248 0.39178
 C782 C 0.10398 0.20916 0.40625
 C783 C 0.11929 0.19484 0.39773
 C784 C 0.12312 0.19370 0.37554
 C785 C 0.11187 0.20672 0.36139
 C786 C 0.09670 0.22098 0.36932
 C787 C 0.05774 0.25240 0.43098
 C788 C 0.05387 0.25349 0.45316
 C789 C 0.06512 0.24047 0.46731
 C790 C 0.08033 0.22627 0.45939
 C791 C 0.06545 0.25067 0.38515
 C792 C 0.05582 0.26202 0.37282
 C793 C 0.11200 0.19703 0.44363
 C794 C 0.12187 0.18620 0.45624
 H795 H 0.12844 0.18438 0.40809
 H796 H 0.13488 0.18266 0.36930
 H797 H 0.11490 0.20578 0.34417
 H798 H 0.08836 0.23077 0.35767
 H799 H 0.04858 0.26284 0.42062
 H800 H 0.04206 0.26449 0.45940
 H801 H 0.06203 0.24136 0.48453
 H802 H 0.08866 0.21648 0.47105
 C803 C 0.10066 0.78769 0.57084
 C804 C 0.08643 0.77197 0.56299
 C805 C 0.07430 0.75953 0.57777
 C806 C 0.07650 0.76286 0.60032
 C807 C 0.09063 0.77868 0.60816
 C808 C 0.10274 0.79113 0.59338
 C809 C 0.11680 0.80680 0.60159
 C810 C 0.11884 0.81008 0.62380
 C811 C 0.10698 0.79791 0.63826
 C812 C 0.09301 0.78236 0.63063
 C813 C 0.06021 0.74389 0.56955
 C814 C 0.05819 0.74059 0.54735
 C815 C 0.07008 0.75273 0.53289
 C816 C 0.08404 0.76827 0.54052
 C817 C 0.06446 0.74985 0.61542
 C818 C 0.05458 0.73896 0.62800
 C819 C 0.11327 0.80014 0.55572
 C820 C 0.12368 0.81021 0.54290
 H821 H 0.12636 0.81667 0.59098
 H822 H 0.12968 0.82213 0.62980
 H823 H 0.10862 0.80052 0.65549
 H824 H 0.08413 0.77331 0.64251
 H825 H 0.05061 0.73405 0.58016
 H826 H 0.04735 0.72855 0.54134
 H827 H 0.06850 0.75007 0.51566
 H828 H 0.09292 0.77732 0.52862
 C829 C 0.89597 0.78935 0.42707
 C830 C 0.91746 0.79434 0.42226
 C831 C 0.92881 0.78208 0.40669
 C832 C 0.91861 0.76490 0.39603
 C833 C 0.89704 0.76007 0.40065
 C834 C 0.88569 0.77233 0.41621
 C835 C 0.86417 0.76715 0.42061
 C836 C 0.85416 0.75033 0.40994
 C837 C 0.86526 0.73834 0.39474
 C838 C 0.88646 0.74307 0.39008
 C839 C 0.95030 0.78731 0.40220
 C840 C 0.96029 0.80418 0.41280
 C841 C 0.94919 0.81618 0.42802
 C842 C 0.92802 0.81139 0.43276
 C843 C 0.93039 0.75185 0.38072
 C844 C 0.94010 0.74068 0.36826
 C845 C 0.88452 0.80147 0.44340
 C846 C 0.87488 0.81129 0.45704
 H847 H 0.85486 0.77602 0.43230
 H848 H 0.83769 0.74659 0.41351
 H849 H 0.85741 0.72528 0.38650
 H850 H 0.89441 0.73329 0.37811
 H851 H 0.95958 0.77845 0.39047
 H852 H 0.97673 0.80797 0.40918
 H853 H 0.95703 0.82927 0.43621
 H854 H 0.92005 0.82118 0.44471
 C855 C 0.89797 0.21170 0.56996
 C856 C 0.89215 0.21219 0.59210
 C857 C 0.90349 0.22547 0.60674
 C858 C 0.92060 0.23817 0.59915
 C859 C 0.92650 0.23759 0.57703
 C860 C 0.91515 0.22432 0.56239
 C861 C 0.92134 0.22401 0.54035
 C862 C 0.93827 0.23645 0.53299
 C863 C 0.94935 0.24944 0.54730
 C864 C 0.94360 0.25008 0.56908
 C865 C 0.89737 0.22571 0.62880
 C866 C 0.88051 0.21318 0.63618
 C867 C 0.86942 0.20020 0.62187
 C868 C 0.87510 0.19965 0.60006
 C869 C 0.93213 0.25182 0.61406
 C870 C 0.94179 0.26315 0.62638
 C871 C 0.88618 0.19842 0.55492
 C872 C 0.87645 0.18762 0.54218
 H873 H 0.91322 0.21417 0.52858
 H874 H 0.94283 0.23597 0.51609
 H875 H 0.96248 0.25908 0.54149
 H876 H 0.95271 0.26044 0.57958
 H877 H 0.90551 0.23555 0.64055
 H878 H 0.87604 0.21356 0.65310
 H879 H 0.85635 0.19049 0.62768
 H880 H 0.86600 0.18929 0.58956
 C881 C 0.42862 0.10400 0.21182
 C882 C 0.40661 0.10874 0.21073
 C883 C 0.39187 0.09687 0.22341
 C884 C 0.39926 0.08033 0.23709
 C885 C 0.42126 0.07550 0.23809
 C886 C 0.43599 0.08738 0.22542
 C887 C 0.45792 0.08231 0.22673
 C888 C 0.46508 0.06595 0.24015
 C889 C 0.45067 0.05431 0.25251
 C890 C 0.42900 0.05897 0.25156
 C891 C 0.36995 0.10191 0.22208
 C892 C 0.36278 0.11822 0.20860
 C893 C 0.37719 0.12983 0.19620
 C894 C 0.39887 0.12522 0.19719
 C895 C 0.38426 0.06833 0.25020
 C896 C 0.37190 0.05832 0.26115
 C897 C 0.44373 0.11626 0.19911
 C898 C 0.45659 0.12629 0.18880
 H899 H 0.46976 0.09089 0.21742
 H900 H 0.48191 0.06229 0.24097
 H901 H 0.45631 0.04161 0.26291
 H902 H 0.41841 0.04947 0.26149
 H903 H 0.35813 0.09333 0.23141
 H904 H 0.34595 0.12186 0.20777
 H905 H 0.37154 0.14248 0.18575
 H906 H 0.40946 0.13469 0.18724
 C907 C 0.56833 0.10491 0.78701
 C908 C 0.56148 0.08651 0.77565
 C909 C 0.57617 0.07492 0.76266
 C910 C 0.59759 0.08179 0.76109
 C911 C 0.60446 0.10012 0.77253
 C912 C 0.58978 0.11171 0.78555
 C913 C 0.59700 0.12997 0.79685
 C914 C 0.61814 0.13659 0.79534
 C915 C 0.63249 0.12526 0.78261
 C916 C 0.62582 0.10723 0.77130
 C917 C 0.56897 0.05658 0.75146
 C918 C 0.54787 0.04987 0.75308
 C919 C 0.53351 0.06121 0.76579
 C920 C 0.54014 0.07934 0.77697
 C921 C 0.61255 0.07002 0.74771
 C922 C 0.62492 0.06018 0.73661
 C923 C 0.55324 0.11687 0.80006
 C924 C 0.54048 0.12669 0.81071
 H925 H 0.58643 0.13930 0.80696
 H926 H 0.62340 0.15058 0.80411
 H927 H 0.64889 0.13047 0.78149
 H928 H 0.63758 0.09894 0.76161
 H929 H 0.57954 0.04722 0.74137
 H930 H 0.54264 0.03579 0.74444
 H931 H 0.51715 0.05591 0.76703
 H932 H 0.52837 0.08762 0.78664
 C933 C 0.42650 0.90187 0.79460
 C934 C 0.40465 0.89660 0.79658
 C935 C 0.38927 0.90758 0.78394
 C936 C 0.39582 0.92377 0.76938
 C937 C 0.41763 0.92929 0.76768
 C938 C 0.43301 0.91831 0.78032
 C939 C 0.45473 0.92404 0.77825
 C940 C 0.46107 0.94017 0.76412
 C941 C 0.44603 0.95092 0.75177
 C942 C 0.42454 0.94561 0.75346
 C943 C 0.36754 0.90198 0.78613
 C944 C 0.36119 0.88598 0.80042
 C945 C 0.37623 0.87523 0.81278
 C946 C 0.39774 0.88041 0.81095
 C947 C 0.38024 0.93444 0.75582
 C948 C 0.36757 0.94329 0.74426
 C949 C 0.44232 0.89007 0.80683
 C950 C 0.45561 0.88017 0.81667
 H951 H 0.46703 0.91616 0.78753
 H952 H 0.47774 0.94435 0.76274
 H953 H 0.45103 0.96345 0.74082
 H954 H 0.41344 0.95446 0.74353
 H955 H 0.35525 0.90991 0.77688
 H956 H 0.34450 0.88190 0.80191
 H957 H 0.37121 0.86282 0.82386
 H958 H 0.40884 0.87162 0.82092
 C959 C 0.57218 0.90220 0.20596
 C960 C 0.56551 0.91921 0.21946
 C961 C 0.58068 0.93029 0.23229
 C962 C 0.60241 0.92427 0.23156
 C963 C 0.60912 0.90753 0.21774
 C964 C 0.59396 0.89646 0.20490
 C965 C 0.60104 0.87972 0.19127
 C966 C 0.62249 0.87408 0.19036
 C967 C 0.63731 0.88490 0.20292
 C968 C 0.63080 0.90144 0.21650
 C969 C 0.57363 0.94719 0.24572
 C970 C 0.55221 0.95299 0.24645
 C971 C 0.53738 0.94214 0.23393
 C972 C 0.54386 0.92543 0.22056
 C973 C 0.61772 0.93499 0.24537
 C974 C 0.63020 0.94385 0.25713
 C975 C 0.55655 0.89028 0.19360
 C976 C 0.54346 0.88023 0.18364
 H977 H 0.59011 0.87086 0.18117
 H978 H 0.62763 0.86125 0.17983
 H979 H 0.65395 0.88046 0.20215
 H980 H 0.64292 0.90940 0.22594
 H981 H 0.58456 0.95613 0.25575
 H982 H 0.54710 0.96597 0.25680
 H983 H 0.52076 0.94669 0.23456
 H984 H 0.53173 0.91750 0.21110
 C985 C 0.42507 0.20933 0.89913
 C986 C 0.43184 0.22221 0.91664
 C987 C 0.41676 0.23463 0.92831
 C988 C 0.39500 0.23411 0.92237
 C989 C 0.38817 0.22095 0.90511
 C990 C 0.40326 0.20852 0.89344
 C991 C 0.39607 0.19553 0.87619
 C992 C 0.37459 0.19484 0.87064
 C993 C 0.35984 0.20700 0.88204
 C994 C 0.36646 0.21994 0.89909
 C995 C 0.42391 0.24743 0.94572
 C996 C 0.44536 0.24793 0.95145
 C997 C 0.46011 0.23580 0.94002
 C998 C 0.45353 0.22307 0.92280
 C999 C 0.37977 0.24750 0.93373
 C1000 C 0.36740 0.25894 0.94313
 C1001 C 0.44061 0.19725 0.88675
 C1002 C 0.45371 0.18748 0.87648
 H1003 H 0.40695 0.18577 0.86686
 H1004 H 0.36937 0.18481 0.85741
 H1005 H 0.34317 0.20640 0.87767
 H1006 H 0.35439 0.22909 0.90750
 H1007 H 0.41304 0.25713 0.95512
 H1008 H 0.45054 0.25778 0.96483
 H1009 H 0.47675 0.23624 0.94454
 H1010 H 0.46561 0.21391 0.91443
 C1011 C 0.57090 0.79130 0.89841
 C1012 C 0.56374 0.77674 0.91437
 C1013 C 0.57862 0.76353 0.92534
 C1014 C 0.60058 0.76496 0.92028
 C1015 C 0.60775 0.77961 0.90441
 C1016 C 0.59287 0.79283 0.89345
 C1017 C 0.60041 0.80734 0.87764
 C1018 C 0.62205 0.80876 0.87280
 C1019 C 0.63660 0.79584 0.88351
 C1020 C 0.62963 0.78140 0.89916
 C1021 C 0.57108 0.74908 0.94121
 C1022 C 0.54945 0.74771 0.94610
 C1023 C 0.53489 0.76061 0.93537
 C1024 C 0.54186 0.77499 0.91968
 C1025 C 0.61575 0.75135 0.93139
 C1026 C 0.62824 0.74002 0.94072
 C1027 C 0.55562 0.80447 0.88692
 C1028 C 0.54271 0.81514 0.87738
 H1029 H 0.58970 0.81773 0.86888
 H1030 H 0.62754 0.81995 0.86066
 H1031 H 0.65339 0.79700 0.87969
 H1032 H 0.64156 0.77169 0.90706
 H1033 H 0.58178 0.73871 0.95001
 H1034 H 0.54396 0.73657 0.95829
 H1035 H 0.51811 0.75948 0.93922
 H1036 H 0.52992 0.78469 0.91179
 C1037 C 0.43013 0.78984 0.10084
 C1038 C 0.43698 0.77764 0.08283
 C1039 C 0.42233 0.76417 0.07187
 C1040 C 0.40092 0.76297 0.07899
 C1041 C 0.39401 0.77532 0.09687
 C1042 C 0.40866 0.78880 0.10782
 C1043 C 0.40140 0.80099 0.12566
 C1044 C 0.38026 0.79990 0.13247
 C1045 C 0.36594 0.78672 0.12177
 C1046 C 0.37265 0.77452 0.10416
 C1047 C 0.42956 0.75212 0.05391
 C1048 C 0.45065 0.75336 0.04697
 C1049 C 0.46498 0.76652 0.05770
 C1050 C 0.45832 0.77854 0.07544
 C1051 C 0.38603 0.74900 0.06795
 C1052 C 0.37373 0.73739 0.05871
 C1053 C 0.44523 0.80316 0.11237
 C1054 C 0.45794 0.81398 0.12200
 H1055 H 0.41193 0.81150 0.13449
 H1056 H 0.37497 0.80935 0.14613
 H1057 H 0.34953 0.78592 0.12713
 H1058 H 0.36091 0.76451 0.09635
 H1059 H 0.41901 0.74166 0.04503
 H1060 H 0.45590 0.74406 0.03319
 H1061 H 0.48134 0.76744 0.05223
 H1062 H 0.47006 0.78855 0.08324
 C1063 C 0.57519 0.20943 0.10540
 C1064 C 0.57910 0.23099 0.11104
 C1065 C 0.59458 0.24297 0.09944
 C1066 C 0.60605 0.23333 0.08229
 C1067 C 0.60234 0.21170 0.07683
 C1068 C 0.58686 0.19971 0.08842
 C1069 C 0.58337 0.17813 0.08264
 C1070 C 0.59486 0.16867 0.06587
 C1071 C 0.61000 0.18040 0.05453
 C1072 C 0.61376 0.20168 0.05987
 C1073 C 0.59816 0.26452 0.10532
 C1074 C 0.58677 0.27395 0.12218
 C1075 C 0.57164 0.26223 0.13352
 C1076 C 0.56777 0.24099 0.12808
 C1077 C 0.62134 0.24582 0.07003
 C1078 C 0.63375 0.25655 0.05987
 C1079 C 0.55896 0.19741 0.11687
 C1080 C 0.54531 0.18768 0.12642
 H1081 H 0.57178 0.16835 0.09100
 H1082 H 0.59201 0.15214 0.06166
 H1083 H 0.61889 0.17297 0.04152
 H1084 H 0.62571 0.21014 0.05060
 H1085 H 0.60978 0.27429 0.09700
 H1086 H 0.58972 0.29044 0.12646
 H1087 H 0.56284 0.26962 0.14660
 H1088 H 0.55585 0.23253 0.13740
 C1089 C 0.20491 0.09998 0.57365
 C1090 C 0.21909 0.11122 0.58731
 C1091 C 0.23157 0.09992 0.60268
 C1092 C 0.22979 0.07745 0.60432
 C1093 C 0.21537 0.06624 0.59090
 C1094 C 0.20289 0.07754 0.57552
 C1095 C 0.18865 0.06598 0.56221
 C1096 C 0.18679 0.04388 0.56405
 C1097 C 0.19900 0.03283 0.57908
 C1098 C 0.21315 0.04380 0.59239
 C1099 C 0.24572 0.11150 0.61608
 C1100 C 0.24748 0.13361 0.61435
 C1101 C 0.23528 0.14466 0.59933
 C1102 C 0.22122 0.13368 0.58592
 C1103 C 0.24320 0.06585 0.61940
 C1104 C 0.25467 0.05634 0.63170
 C1105 C 0.19278 0.11147 0.55740
 C1106 C 0.18301 0.12119 0.54381
 H1107 H 0.17881 0.07387 0.55030
 H1108 H 0.17582 0.03529 0.55375
 H1109 H 0.19750 0.01567 0.58043
 H1110 H 0.22228 0.03451 0.60385
 H1111 H 0.25554 0.10363 0.62803
 H1112 H 0.25838 0.14221 0.62472
 H1113 H 0.23670 0.16183 0.59805
 H1114 H 0.21206 0.14299 0.57451
 C1115 C 0.79260 0.09879 0.42753
 C1116 C 0.79563 0.10172 0.40502
 C1117 C 0.78283 0.09024 0.39005
 C1118 C 0.76710 0.07590 0.39770
 C1119 C 0.76432 0.07270 0.42021
 C1120 C 0.77710 0.08418 0.43517
 C1121 C 0.77396 0.08079 0.45761
 C1122 C 0.75863 0.06646 0.46504
 C1123 C 0.74614 0.05523 0.45041
 C1124 C 0.74887 0.05825 0.42824
 C1125 C 0.78609 0.09350 0.36763
 C1126 C 0.80155 0.10769 0.36019
 C1127 C 0.81406 0.11891 0.37483
 C1128 C 0.81120 0.11603 0.39700
 C1129 C 0.75347 0.06475 0.38248
 C1130 C 0.74186 0.05554 0.37009
 C1131 C 0.80507 0.11109 0.44286
 C1132 C 0.81509 0.12136 0.45581
 H1133 H 0.78331 0.08912 0.46963
 H1134 H 0.75643 0.06408 0.48225
 H1135 H 0.73425 0.04412 0.45627
 H1136 H 0.73877 0.04913 0.41751
 H1137 H 0.77677 0.08511 0.35562
 H1138 H 0.80384 0.10998 0.34298
 H1139 H 0.82605 0.12991 0.36897
 H1140 H 0.82133 0.12510 0.40775
 C1141 C 0.78675 0.89602 0.57180
 C1142 C 0.78976 0.89427 0.59443
 C1143 C 0.77664 0.90616 0.60881
 C1144 C 0.76060 0.91973 0.60047
 C1145 C 0.75765 0.92155 0.57784
 C1146 C 0.77076 0.90965 0.56346
 C1147 C 0.76748 0.91170 0.54089
 C1148 C 0.75170 0.92510 0.53277
 C1149 C 0.73890 0.93676 0.54684
 C1150 C 0.74176 0.93507 0.56912
 C1151 C 0.77992 0.90413 0.63137
 C1152 C 0.79573 0.89075 0.63949
 C1153 C 0.80857 0.87913 0.62542
 C1154 C 0.80569 0.88080 0.60313
 C1155 C 0.74710 0.93177 0.61515
 C1156 C 0.73589 0.94177 0.62733
 C1157 C 0.79996 0.88372 0.55708
 C1158 C 0.81066 0.87361 0.54453
 H1159 H 0.77704 0.90298 0.52929
 H1160 H 0.74938 0.92644 0.51548
 H1161 H 0.72666 0.94716 0.54045
 H1162 H 0.73140 0.94445 0.57941
 H1163 H 0.77034 0.91285 0.64296
 H1164 H 0.79803 0.88939 0.65678
 H1165 H 0.82082 0.86876 0.63181
 H1166 H 0.81607 0.87145 0.59284
 C1167 C 0.21270 0.89347 0.42779
 C1168 C 0.20984 0.89101 0.40522
 C1169 C 0.22270 0.90285 0.39056
 C1170 C 0.23834 0.91707 0.39857
 C1171 C 0.24120 0.91952 0.42115
 C1172 C 0.22836 0.90767 0.43581
 C1173 C 0.23155 0.91035 0.45833
 C1174 C 0.24700 0.92432 0.46612
 C1175 C 0.25953 0.93593 0.45179
 C1176 C 0.25674 0.93362 0.42954
 C1177 C 0.21957 0.90012 0.36805
 C1178 C 0.20417 0.88609 0.36026
 C1179 C 0.19159 0.87452 0.37459
 C1180 C 0.19432 0.87689 0.39684
 C1181 C 0.25146 0.92918 0.38361
 C1182 C 0.26236 0.93928 0.37124
 C1183 C 0.19961 0.88140 0.44281
 C1184 C 0.18896 0.87152 0.45559
 H1185 H 0.22219 0.90168 0.47013
 H1186 H 0.24926 0.92613 0.48338
 H1187 H 0.27151 0.94677 0.45792
 H1188 H 0.26689 0.94300 0.41904
 H1189 H 0.22896 0.90877 0.35626
 H1190 H 0.20198 0.88419 0.34299
 H1191 H 0.17965 0.86364 0.36846
 H1192 H 0.18416 0.86754 0.40735
 C1193 C 0.10562 0.43050 0.78523
 C1194 C 0.09006 0.41730 0.79505
 C1195 C 0.07827 0.40262 0.78225
 C1196 C 0.08211 0.40124 0.75971
 C1197 C 0.09773 0.41438 0.74990
 C1198 C 0.10952 0.42905 0.76270
 C1199 C 0.12503 0.44204 0.75251
 C1200 C 0.12879 0.44057 0.73033
 C1201 C 0.11727 0.42622 0.71783
 C1202 C 0.10190 0.41324 0.72741
 C1203 C 0.06278 0.38961 0.79243
 C1204 C 0.05904 0.39106 0.81462
 C1205 C 0.07057 0.40540 0.82713
 C1206 C 0.08592 0.41841 0.81754
 C1207 C 0.06996 0.38637 0.74659
 C1208 C 0.05987 0.37407 0.73567
 C1209 C 0.11747 0.44573 0.79821
 C1210 C 0.12731 0.45854 0.80877
 H1211 H 0.13442 0.45343 0.76155
 H1212 H 0.14072 0.45062 0.72281
 H1213 H 0.12024 0.42514 0.70060
 H1214 H 0.09335 0.40233 0.71700
 H1215 H 0.05341 0.37821 0.78338
 H1216 H 0.04714 0.38099 0.82214
 H1217 H 0.06761 0.40646 0.84435
 H1218 H 0.09448 0.42932 0.82795
 C1219 C 0.10190 0.57391 0.20832
 C1220 C 0.10652 0.57631 0.23061
 C1221 C 0.09508 0.59148 0.24319
 C1222 C 0.07909 0.60415 0.23342
 C1223 C 0.07461 0.60189 0.21110
 C1224 C 0.08605 0.58672 0.19851
 C1225 C 0.08126 0.58471 0.17624
 C1226 C 0.06561 0.59733 0.16667
 C1227 C 0.05442 0.61215 0.17899
 C1228 C 0.05880 0.61447 0.20096
 C1229 C 0.09994 0.59355 0.26546
 C1230 C 0.11565 0.58100 0.27501
 C1231 C 0.12683 0.56618 0.26270
 C1232 C 0.12238 0.56379 0.24076
 C1233 C 0.06708 0.61921 0.24647
 C1234 C 0.05717 0.63143 0.25770
 C1235 C 0.11329 0.55807 0.19563
 C1236 C 0.12283 0.54475 0.18541
 H1237 H 0.08955 0.57341 0.16599
 H1238 H 0.06215 0.59559 0.14961
 H1239 H 0.04228 0.62191 0.17148
 H1240 H 0.04969 0.62622 0.20987
 H1241 H 0.09170 0.60486 0.27571
 H1242 H 0.11916 0.58280 0.29205
 H1243 H 0.13902 0.55647 0.27020
 H1244 H 0.13153 0.55205 0.23187
 C1245 C 0.89723 0.42846 0.20940
 C1246 C 0.89133 0.40665 0.21008
 C1247 C 0.90287 0.39217 0.22333
 C1248 C 0.92025 0.39959 0.23581
 C1249 C 0.92624 0.42136 0.23501
 C1250 C 0.91470 0.43584 0.22177
 C1251 C 0.92099 0.45755 0.22125
 C1252 C 0.93819 0.46472 0.23345
 C1253 C 0.94946 0.45057 0.24641
 C1254 C 0.94362 0.42912 0.24726
 C1255 C 0.89665 0.37046 0.22377
 C1256 C 0.87952 0.36326 0.21148
 C1257 C 0.86823 0.37742 0.19854
 C1258 C 0.87399 0.39888 0.19779
 C1259 C 0.93192 0.38484 0.24949
 C1260 C 0.94161 0.37259 0.26085
 C1261 C 0.88519 0.44336 0.19623
 C1262 C 0.87521 0.45599 0.18559
 H1263 H 0.91272 0.46918 0.21142
 H1264 H 0.94283 0.48136 0.23281
 H1265 H 0.96281 0.45623 0.25586
 H1266 H 0.95289 0.41873 0.25758
 H1267 H 0.90494 0.35883 0.23359
 H1268 H 0.87498 0.34659 0.21201
 H1269 H 0.85493 0.37174 0.18903
 H1270 H 0.86473 0.40928 0.18746
 C1271 C 0.90099 0.57030 0.79433
 C1272 C 0.89496 0.59208 0.79437
 C1273 C 0.90592 0.60689 0.78095
 C1274 C 0.92285 0.59983 0.76758
 C1275 C 0.92900 0.57808 0.76767
 C1276 C 0.91804 0.56327 0.78109
 C1277 C 0.92446 0.54160 0.78089
 C1278 C 0.94123 0.53477 0.76781
 C1279 C 0.95193 0.54924 0.75467
 C1280 C 0.94595 0.57067 0.75453
 C1281 C 0.89957 0.62857 0.78123
 C1282 C 0.88287 0.63542 0.79439
 C1283 C 0.87215 0.62094 0.80751
 C1284 C 0.87805 0.59950 0.80756
 C1285 C 0.93389 0.61490 0.75368
 C1286 C 0.94305 0.62741 0.74212
 C1287 C 0.88947 0.55506 0.80761
 C1288 C 0.87986 0.54219 0.81834
 H1289 H 0.91663 0.52973 0.79083
 H1290 H 0.94596 0.51815 0.76790
 H1291 H 0.96494 0.54385 0.74454
 H1292 H 0.95477 0.58132 0.74404
 H1293 H 0.90743 0.64044 0.77131
 H1294 H 0.87823 0.65207 0.79440
 H1295 H 0.85919 0.62634 0.81770
 H1296 H 0.86924 0.58884 0.81806
 C1297 C 0.79628 0.57318 0.90326
 C1298 C 0.78949 0.57002 0.92489
 C1299 C 0.77676 0.58574 0.93532
 C1300 C 0.77091 0.60454 0.92405
 C1301 C 0.77810 0.60790 0.90260
 C1302 C 0.79082 0.59218 0.89217
 C1303 C 0.79774 0.59587 0.87068
 C1304 C 0.79226 0.61456 0.85980
 C1305 C 0.77982 0.62993 0.87000
 C1306 C 0.77276 0.62672 0.89114
 C1307 C 0.77005 0.58217 0.95690
 C1308 C 0.77576 0.56361 0.96787
 C1309 C 0.78824 0.54826 0.95770
 C1310 C 0.79507 0.55134 0.93645
 C1311 C 0.75707 0.62012 0.93434
 C1312 C 0.74531 0.63281 0.94289
 C1313 C 0.80842 0.55668 0.89222
 C1314 C 0.81824 0.54299 0.88279
 H1315 H 0.80747 0.58441 0.86207
 H1316 H 0.79771 0.61713 0.84338
 H1317 H 0.77560 0.64442 0.86148
 H1318 H 0.76314 0.63915 0.89840
 H1319 H 0.76036 0.59366 0.96552
 H1320 H 0.77045 0.56111 0.98436
 H1321 H 0.79266 0.53388 0.96631
 H1322 H 0.80476 0.53895 0.92923
 C1323 C 0.21396 0.42965 0.89468
 C1324 C 0.22571 0.43686 0.91280
 C1325 C 0.23840 0.42225 0.92474
 C1326 C 0.23927 0.40052 0.91848
 C1327 C 0.22744 0.39329 0.90043
 C1328 C 0.21475 0.40791 0.88849
 C1329 C 0.20308 0.40032 0.87049
 C1330 C 0.20392 0.37890 0.86446
 C1331 C 0.21632 0.36461 0.87614
 C1332 C 0.22798 0.37163 0.89394
 C1333 C 0.25000 0.42983 0.94279
 C1334 C 0.24907 0.45123 0.94889
 C1335 C 0.23665 0.46551 0.93723
 C1336 C 0.22508 0.45851 0.91937
 C1337 C 0.25232 0.38562 0.93061
 C1338 C 0.26315 0.37327 0.94070
 C1339 C 0.20120 0.44466 0.88238
 C1340 C 0.19080 0.45743 0.87235
 H1341 H 0.19319 0.41083 0.86092
 H1342 H 0.19490 0.37337 0.85065
 H1343 H 0.21691 0.34798 0.87140
 H1344 H 0.23738 0.35990 0.90252
 H1345 H 0.25988 0.41932 0.95238
 H1346 H 0.25803 0.45674 0.96275
 H1347 H 0.23594 0.48210 0.94206
 H1348 H 0.21565 0.47024 0.91083
 C1349 C 0.20892 0.57258 0.10045
 C1350 C 0.20586 0.59472 0.10392
 C1351 C 0.21886 0.60977 0.09284
 C1352 C 0.23485 0.60261 0.07837
 C1353 C 0.23773 0.58047 0.07470
 C1354 C 0.22473 0.56542 0.08577
 C1355 C 0.22795 0.54338 0.08186
 C1356 C 0.24354 0.53641 0.06743
 C1357 C 0.25625 0.55112 0.05662
 C1358 C 0.25346 0.57292 0.06015
 C1359 C 0.21553 0.63181 0.09661
 C1360 C 0.19980 0.63878 0.11090
 C1361 C 0.18710 0.62406 0.12173
 C1362 C 0.19003 0.60226 0.11834
 C1363 C 0.24850 0.61794 0.06745
 C1364 C 0.26005 0.63045 0.05836
 C1365 C 0.19610 0.55715 0.11223
 C1366 C 0.18575 0.54415 0.12207
 H1367 H 0.21845 0.53131 0.08987
 H1368 H 0.24576 0.51950 0.06461
 H1369 H 0.26835 0.54563 0.04542
 H1370 H 0.26373 0.58374 0.05134
 H1371 H 0.22500 0.64386 0.08855
 H1372 H 0.19746 0.65570 0.11358
 H1373 H 0.17491 0.62956 0.13281
 H1374 H 0.17974 0.59143 0.12712
 C1375 C 0.79163 0.42616 0.09847
 C1376 C 0.78507 0.43057 0.07701
 C1377 C 0.77244 0.41550 0.06560
 C1378 C 0.76646 0.39611 0.07570
 C1379 C 0.77336 0.39153 0.09700
 C1380 C 0.78598 0.40660 0.10841
 C1381 C 0.79263 0.40170 0.12971
 C1382 C 0.78699 0.38244 0.13945
 C1383 C 0.77464 0.36771 0.12829
 C1384 C 0.76785 0.37211 0.10731
 C1385 C 0.76599 0.42029 0.04421
 C1386 C 0.77185 0.43943 0.03437
 C1387 C 0.78422 0.45416 0.04552
 C1388 C 0.79079 0.44987 0.06661
 C1389 C 0.75296 0.38104 0.06433
 C1390 C 0.74163 0.36859 0.05494
 C1391 C 0.80372 0.44195 0.11048
 C1392 C 0.81349 0.45517 0.12056
 H1393 H 0.80229 0.41263 0.13904
 H1394 H 0.79223 0.37894 0.15574
 H1395 H 0.77030 0.35277 0.13593
 H1396 H 0.75830 0.36013 0.09928
 H1397 H 0.75639 0.40932 0.03486
 H1398 H 0.76675 0.44287 0.01802
 H1399 H 0.78875 0.46900 0.03781
 H1400 H 0.80041 0.46181 0.07461
 C1401 C 0.89536 0.79011 0.57650
 C1402 C 0.91748 0.79335 0.57945
 C1403 C 0.92872 0.78111 0.59508
 C1404 C 0.91778 0.76571 0.60765
 C1405 C 0.89560 0.76271 0.60493
 C1406 C 0.88436 0.77494 0.58932
 C1407 C 0.86220 0.77159 0.58683
 C1408 C 0.85147 0.75657 0.59941
 C1409 C 0.86246 0.74460 0.61467
 C1410 C 0.88427 0.74756 0.61747
 C1411 C 0.95084 0.78456 0.59767
 C1412 C 0.96156 0.79967 0.58518
 C1413 C 0.95057 0.81163 0.56990
 C1414 C 0.92879 0.80857 0.56700
 C1415 C 0.92941 0.75255 0.62293
 C1416 C 0.93907 0.74131 0.63534
 C1417 C 0.88400 0.80206 0.56004
 C1418 C 0.87446 0.81174 0.54627
 H1419 H 0.85295 0.78052 0.57519
 H1420 H 0.83452 0.75422 0.59730
 H1421 H 0.85405 0.73296 0.62440
 H1422 H 0.89212 0.73789 0.62957
 H1423 H 0.96007 0.77567 0.60937
 H1424 H 0.97848 0.80211 0.58738
 H1425 H 0.95897 0.82334 0.56025
 H1426 H 0.92093 0.81827 0.55493
 C1427 C 0.89819 0.20863 0.42575
 C1428 C 0.89632 0.20436 0.40334
 C1429 C 0.90763 0.21708 0.38811
 C1430 C 0.92075 0.23399 0.39540
 C1431 C 0.92275 0.23814 0.41783
 C1432 C 0.91144 0.22543 0.43305
 C1433 C 0.91365 0.22995 0.45538
 C1434 C 0.92665 0.24654 0.46248
 C1435 C 0.93773 0.25896 0.44760
 C1436 C 0.93586 0.25488 0.42552
 C1437 C 0.90548 0.21254 0.36579
 C1438 C 0.89251 0.19591 0.35871
 C1439 C 0.88144 0.18348 0.37359
 C1440 C 0.88326 0.18758 0.39567
 C1441 C 0.93196 0.24732 0.37989
 C1442 C 0.94130 0.25873 0.36733
 C1443 C 0.88635 0.19594 0.44133
 C1444 C 0.87658 0.18570 0.45455
 H1445 H 0.90538 0.22073 0.46759
 H1446 H 0.92812 0.24980 0.47961
 H1447 H 0.94781 0.27183 0.45320
 H1448 H 0.94480 0.26499 0.41459
 H1449 H 0.91378 0.22176 0.35361
 H1450 H 0.89104 0.19265 0.34157
 H1451 H 0.87139 0.17058 0.36800
 H1452 H 0.87436 0.17747 0.40662
 C1453 C 0.09888 0.20799 0.57142
 C1454 C 0.08898 0.22704 0.56427
 C1455 C 0.07767 0.24005 0.57922
 C1456 C 0.07630 0.23393 0.60125
 C1457 C 0.08595 0.21475 0.60834
 C1458 C 0.09728 0.20174 0.59338
 C1459 C 0.10684 0.18266 0.60085
 C1460 C 0.10524 0.17660 0.62249
 C1461 C 0.09416 0.18931 0.63711
 C1462 C 0.08460 0.20819 0.63021
 C1463 C 0.06797 0.25905 0.57170
 C1464 C 0.06940 0.26502 0.55003
 C1465 C 0.08046 0.25230 0.53540
 C1466 C 0.09016 0.23351 0.54234
 C1467 C 0.06519 0.24753 0.61659
 C1468 C 0.05603 0.25910 0.62913
 C1469 C 0.11090 0.19504 0.55620
 C1470 C 0.12091 0.18465 0.54329
 H1471 H 0.11561 0.17224 0.59008
 H1472 H 0.11264 0.16195 0.62793
 H1473 H 0.09296 0.18452 0.65390
 H1474 H 0.07613 0.21754 0.64218
 H1475 H 0.05918 0.26948 0.58246
 H1476 H 0.06189 0.27960 0.54456
 H1477 H 0.08155 0.25702 0.51859
 H1478 H 0.09855 0.22414 0.53033
 C1479 C 0.10166 0.78652 0.42792
 C1480 C 0.10796 0.78503 0.40597
 C1481 C 0.09599 0.77228 0.39136
 C1482 C 0.07781 0.76109 0.39881
 C1483 C 0.07139 0.76274 0.42072
 C1484 C 0.08334 0.77550 0.43532
 C1485 C 0.07662 0.77689 0.45716
 C1486 C 0.05857 0.76604 0.46434
 C1487 C 0.04689 0.75355 0.45007
 C1488 C 0.05316 0.75185 0.42849
 C1489 C 0.10261 0.77102 0.36949
 C1490 C 0.12053 0.78205 0.36225
 C1491 C 0.13223 0.79452 0.37654
 C1492 C 0.12609 0.79605 0.39816
 C1493 C 0.06579 0.74779 0.38396
 C1494 C 0.05588 0.73671 0.37162
 C1495 C 0.11411 0.79915 0.44298
 C1496 C 0.12437 0.80941 0.45574
 H1497 H 0.08517 0.78640 0.46889
 H1498 H 0.05361 0.76735 0.48107
 H1499 H 0.03289 0.74514 0.45573
 H1500 H 0.04355 0.74196 0.41799
 H1501 H 0.09403 0.76153 0.35776
 H1502 H 0.12536 0.78092 0.34547
 H1503 H 0.14613 0.80307 0.37084
 H1504 H 0.13569 0.80596 0.40866
 C1505 C 0.57116 0.90178 0.79256
 C1506 C 0.56451 0.91961 0.78022
 C1507 C 0.57955 0.93104 0.76748
 C1508 C 0.60115 0.92456 0.76713
 C1509 C 0.60786 0.90691 0.77971
 C1510 C 0.59282 0.89549 0.79246
 C1511 C 0.59989 0.87786 0.80485
 C1512 C 0.62121 0.87170 0.80465
 C1513 C 0.63591 0.88286 0.79218
 C1514 C 0.62940 0.90027 0.77981
 C1515 C 0.57250 0.94879 0.75525
 C1516 C 0.55121 0.95507 0.75560
 C1517 C 0.53651 0.94389 0.76803
 C1518 C 0.54298 0.92635 0.78023
 C1519 C 0.61635 0.93578 0.75350
 C1520 C 0.62876 0.94506 0.74192
 C1521 C 0.55566 0.88975 0.80507
 C1522 C 0.54263 0.87977 0.81525
 H1523 H 0.58906 0.86869 0.81482
 H1524 H 0.62635 0.85819 0.81424
 H1525 H 0.65245 0.87800 0.79209
 H1526 H 0.64143 0.90846 0.77039
 H1527 H 0.58334 0.95801 0.74534
 H1528 H 0.54611 0.96869 0.74617
 H1529 H 0.51999 0.94883 0.76825
 H1530 H 0.53095 0.91818 0.78966
 C1531 C 0.42729 0.90065 0.20595
 C1532 C 0.43357 0.91864 0.21826
 C1533 C 0.41824 0.92990 0.23080
 C1534 C 0.39674 0.92309 0.23098
 C1535 C 0.39041 0.90530 0.21841
 C1536 C 0.40573 0.89405 0.20585
 C1537 C 0.39904 0.87627 0.19347
 C1538 C 0.37781 0.86979 0.19349
 C1539 C 0.36283 0.88079 0.20577
 C1540 C 0.36897 0.89835 0.21812
 C1541 C 0.42491 0.94780 0.24302
 C1542 C 0.44610 0.95439 0.24285
 C1543 C 0.46109 0.94337 0.23061
 C1544 C 0.45499 0.92569 0.21843
 C1545 C 0.38127 0.93411 0.24447
 C1546 C 0.36867 0.94322 0.25598
 C1547 C 0.44310 0.88875 0.19369
 C1548 C 0.45639 0.87888 0.18376
 H1549 H 0.41010 0.86722 0.18365
 H1550 H 0.37296 0.85617 0.18392
 H1551 H 0.34636 0.87570 0.20573
 H1552 H 0.35673 0.90641 0.22739
 H1553 H 0.41384 0.95691 0.25279
 H1554 H 0.45092 0.96812 0.25228
 H1555 H 0.47753 0.94855 0.23054
 H1556 H 0.46723 0.91766 0.20914
 C1557 C 0.57009 0.10288 0.21359
 C1558 C 0.59116 0.11043 0.21632
 C1559 C 0.60572 0.09877 0.22934
 C1560 C 0.59912 0.07964 0.23955
 C1561 C 0.57809 0.07201 0.23669
 C1562 C 0.56352 0.08367 0.22367
 C1563 C 0.54257 0.07575 0.22108
 C1564 C 0.53621 0.05682 0.23101
 C1565 C 0.55045 0.04541 0.24373
 C1566 C 0.57117 0.05285 0.24661
 C1567 C 0.62670 0.10664 0.23186
 C1568 C 0.63312 0.12548 0.22178
 C1569 C 0.61888 0.13687 0.20905
 C1570 C 0.59812 0.12952 0.20629
 C1571 C 0.61393 0.06785 0.25301
 C1572 C 0.62626 0.05809 0.26418
 C1573 C 0.55510 0.11500 0.20063
 C1574 C 0.54252 0.12510 0.19007
 H1575 H 0.53091 0.08405 0.21133
 H1576 H 0.52015 0.05096 0.22880
 H1577 H 0.54543 0.03071 0.25141
 H1578 H 0.58166 0.04342 0.25666
 H1579 H 0.63836 0.09833 0.24160
 H1580 H 0.64922 0.13126 0.22387
 H1581 H 0.62394 0.15150 0.20125
 H1582 H 0.58764 0.13894 0.19623
 C1583 C 0.42689 0.10312 0.78828
 C1584 C 0.40471 0.10587 0.79135
 C1585 C 0.39009 0.09412 0.77849
 C1586 C 0.39774 0.07969 0.76264
 C1587 C 0.41992 0.07684 0.75965
 C1588 C 0.43454 0.08860 0.77251
 C1589 C 0.45665 0.08552 0.76919
 C1590 C 0.46409 0.07124 0.75363
 C1591 C 0.44979 0.05972 0.74108
 C1592 C 0.42794 0.06243 0.74398
 C1593 C 0.36799 0.09715 0.78184
 C1594 C 0.36055 0.11138 0.79746
 C1595 C 0.37485 0.12287 0.81003
 C1596 C 0.39670 0.12022 0.80708
 C1597 C 0.38281 0.06784 0.74935
 C1598 C 0.37046 0.05798 0.73829
 C1599 C 0.44186 0.11533 0.80117
 C1600 C 0.45452 0.12542 0.81163
 H1601 H 0.46841 0.09409 0.77856
 H1602 H 0.48104 0.06910 0.75129
 H1603 H 0.45565 0.04864 0.72902
 H1604 H 0.41745 0.05312 0.73382
 H1605 H 0.35624 0.08858 0.77245
 H1606 H 0.34360 0.11350 0.79981
 H1607 H 0.36899 0.13390 0.82215
 H1608 H 0.40720 0.12951 0.81726
 C1609 C 0.57311 0.79308 0.10014
 C1610 C 0.59513 0.79597 0.10403
 C1611 C 0.61030 0.78334 0.09270
 C1612 C 0.60336 0.76789 0.07755
 C1613 C 0.58134 0.76514 0.07351
 C1614 C 0.56617 0.77777 0.08484
 C1615 C 0.54424 0.77468 0.08058
 C1616 C 0.53749 0.75956 0.06554
 C1617 C 0.55232 0.74722 0.05446
 C1618 C 0.57401 0.74991 0.05833
 C1619 C 0.63222 0.78649 0.09689
 C1620 C 0.63897 0.80169 0.11185
 C1621 C 0.62413 0.81404 0.12293
 C1622 C 0.60244 0.81128 0.11913
 C1623 C 0.61879 0.75461 0.06631
 C1624 C 0.63135 0.74334 0.05694
 C1625 C 0.55755 0.80564 0.11202
 C1626 C 0.54441 0.81583 0.12182
 H1627 H 0.53209 0.78390 0.08877
 H1628 H 0.52067 0.75740 0.06249
 H1629 H 0.54700 0.73550 0.04279
 H1630 H 0.58493 0.73993 0.04929
 H1631 H 0.64436 0.77728 0.08866
 H1632 H 0.65580 0.80390 0.11485
 H1633 H 0.62945 0.82583 0.13453
 H1634 H 0.59151 0.82128 0.12813
 C1635 C 0.43001 0.21241 0.10277
 C1636 C 0.40843 0.21304 0.10942
 C1637 C 0.39358 0.22585 0.09791
 C1638 C 0.40041 0.23794 0.07982
 C1639 C 0.42194 0.23712 0.07302
 C1640 C 0.43679 0.22433 0.08454
 C1641 C 0.45824 0.22381 0.07747
 C1642 C 0.46483 0.23556 0.05952
 C1643 C 0.45030 0.24805 0.04825
 C1644 C 0.42909 0.24889 0.05485
 C1645 C 0.37210 0.22624 0.10487
 C1646 C 0.36546 0.21433 0.12269
 C1647 C 0.37998 0.20181 0.13394
 C1648 C 0.40123 0.20112 0.12746
 C1649 C 0.38535 0.25131 0.06829
 C1650 C 0.37293 0.26248 0.05866
 C1651 C 0.44530 0.19977 0.11484
 C1652 C 0.45812 0.18947 0.12490
 H1653 H 0.47013 0.21431 0.08569
 H1654 H 0.48129 0.23496 0.05432
 H1655 H 0.45550 0.25714 0.03430
 H1656 H 0.41840 0.25883 0.04555
 H1657 H 0.36021 0.23572 0.09662
 H1658 H 0.34897 0.21480 0.12779
 H1659 H 0.37474 0.19258 0.14777
 H1660 H 0.41192 0.19113 0.13672
 C1661 C 0.56920 0.21154 0.89716
 C1662 C 0.59121 0.20866 0.89308
 C1663 C 0.60643 0.22102 0.90458
 C1664 C 0.59955 0.23620 0.92007
 C1665 C 0.57754 0.23900 0.92423
 C1666 C 0.56232 0.22664 0.91274
 C1667 C 0.54041 0.22975 0.91715
 C1668 C 0.53372 0.24464 0.93248
 C1669 C 0.54861 0.25671 0.94373
 C1670 C 0.57028 0.25399 0.93972
 C1671 C 0.62835 0.21786 0.90022
 C1672 C 0.63503 0.20292 0.88494
 C1673 C 0.62015 0.19084 0.87369
 C1674 C 0.59847 0.19361 0.87765
 C1675 C 0.61509 0.24897 0.93167
 C1676 C 0.62794 0.25960 0.94132
 C1677 C 0.55363 0.19912 0.88524
 C1678 C 0.54057 0.18897 0.87535
 H1679 H 0.52822 0.22074 0.90883
 H1680 H 0.51690 0.24683 0.93564
 H1681 H 0.54333 0.26825 0.95563
 H1682 H 0.58125 0.26376 0.94889
 H1683 H 0.64053 0.22686 0.90857
 H1684 H 0.65185 0.20070 0.88181
 H1685 H 0.62542 0.17926 0.86183
 H1686 H 0.58750 0.18384 0.86850
 C1687 C 0.42770 0.79347 0.90091
 C1688 C 0.40611 0.79316 0.89433
 C1689 C 0.39113 0.78034 0.90570
 C1690 C 0.39781 0.76792 0.92359
 C1691 C 0.41932 0.76852 0.93039
 C1692 C 0.43431 0.78132 0.91901
 C1693 C 0.45575 0.78158 0.92606
 C1694 C 0.46218 0.76959 0.94388
 C1695 C 0.44752 0.75709 0.95502
 C1696 C 0.42633 0.75649 0.94842
 C1697 C 0.36966 0.78022 0.89878
 C1698 C 0.36317 0.79245 0.88115
 C1699 C 0.37782 0.80499 0.87004
 C1700 C 0.39907 0.80539 0.87648
 C1701 C 0.38269 0.75424 0.93477
 C1702 C 0.37038 0.74262 0.94404
 C1703 C 0.44316 0.80601 0.88889
 C1704 C 0.45617 0.81620 0.87890
 H1705 H 0.46774 0.79107 0.91794
 H1706 H 0.47862 0.77002 0.94908
 H1707 H 0.45259 0.74781 0.96886
 H1708 H 0.41552 0.74653 0.95762
 H1709 H 0.35768 0.77074 0.90692
 H1710 H 0.34668 0.79220 0.87608
 H1711 H 0.37270 0.81447 0.85636
 H1712 H 0.40986 0.81541 0.86734
 C1713 C 0.78755 0.89532 0.43005
 C1714 C 0.77649 0.91366 0.43739
 C1715 C 0.76347 0.92538 0.42283
 C1716 C 0.76159 0.91868 0.40103
 C1717 C 0.77274 0.90041 0.39367
 C1718 C 0.78576 0.88869 0.40823
 C1719 C 0.79673 0.87047 0.40052
 C1720 C 0.79490 0.86401 0.37902
 C1721 C 0.78216 0.87547 0.36479
 C1722 C 0.77117 0.89347 0.37193
 C1723 C 0.75256 0.94365 0.43053
 C1724 C 0.75447 0.95017 0.45199
 C1725 C 0.76721 0.93872 0.46623
 C1726 C 0.77811 0.92065 0.45911
 C1727 C 0.74817 0.93056 0.38620
 C1728 C 0.73703 0.94045 0.37391
 C1729 C 0.80053 0.88316 0.44505
 C1730 C 0.81106 0.87316 0.45779
 H1731 H 0.80684 0.86105 0.41098
 H1732 H 0.80340 0.85004 0.37339
 H1733 H 0.78079 0.87038 0.34811
 H1734 H 0.76147 0.90186 0.36025
 H1735 H 0.74246 0.95309 0.42007
 H1736 H 0.74603 0.96420 0.45760
 H1737 H 0.76868 0.94388 0.48287
 H1738 H 0.78781 0.91228 0.47081
 C1739 C 0.21119 0.89466 0.57085
 C1740 C 0.21225 0.88840 0.59283
 C1741 C 0.22498 0.90022 0.60757
 C1742 C 0.23657 0.91822 0.60023
 C1743 C 0.23539 0.92457 0.57828
 C1744 C 0.22266 0.91275 0.56354
 C1745 C 0.22173 0.91940 0.54166
 C1746 C 0.23303 0.93723 0.53457
 C1747 C 0.24548 0.94877 0.54898
 C1748 C 0.24672 0.94259 0.57060
 C1749 C 0.22581 0.89366 0.62947
 C1750 C 0.21438 0.87593 0.63660
 C1751 C 0.20194 0.86437 0.62218
 C1752 C 0.20083 0.87046 0.60053
 C1753 C 0.24976 0.93016 0.61523
 C1754 C 0.26072 0.94009 0.62765
 C1755 C 0.19848 0.88240 0.55568
 C1756 C 0.18814 0.87233 0.54284
 H1757 H 0.21227 0.91094 0.52983
 H1758 H 0.23208 0.94213 0.51780
 H1759 H 0.25423 0.96261 0.54339
 H1760 H 0.25661 0.95209 0.58119
 H1761 H 0.23527 0.90214 0.64130
 H1762 H 0.21519 0.87113 0.65341
 H1763 H 0.19309 0.85061 0.62781
 H1764 H 0.19092 0.86098 0.58993
 C1765 C 0.20739 0.10101 0.42611
 C1766 C 0.22989 0.10196 0.42728
 C1767 C 0.24250 0.09049 0.41210
 C1768 C 0.23255 0.07812 0.39582
 C1769 C 0.21006 0.07723 0.39459
 C1770 C 0.19744 0.08871 0.40978
 C1771 C 0.17499 0.08755 0.40824
 C1772 C 0.16528 0.07539 0.39216
 C1773 C 0.17762 0.06416 0.37732
 C1774 C 0.19976 0.06501 0.37845
 C1775 C 0.26497 0.09168 0.41363
 C1776 C 0.27469 0.10384 0.42969
 C1777 C 0.26236 0.11505 0.44454
 C1778 C 0.24022 0.11419 0.44343
 C1779 C 0.24553 0.06627 0.38048
 C1780 C 0.25674 0.05655 0.36805
 C1781 C 0.19457 0.11256 0.44183
 C1782 C 0.18428 0.12220 0.45512
 H1783 H 0.16473 0.09601 0.41941
 H1784 H 0.14809 0.07468 0.39121
 H1785 H 0.16999 0.05474 0.36487
 H1786 H 0.20869 0.05601 0.36655
 H1787 H 0.27526 0.08326 0.40246
 H1788 H 0.29188 0.10457 0.43062
 H1789 H 0.26999 0.12448 0.45699
 H1790 H 0.23133 0.12320 0.45534
 C1791 C 0.79247 0.10093 0.57260
 C1792 C 0.78073 0.08285 0.56579
 C1793 C 0.76797 0.07146 0.58091
 C1794 C 0.76701 0.07823 0.60276
 C1795 C 0.77901 0.09611 0.60964
 C1796 C 0.79178 0.10749 0.59452
 C1797 C 0.80358 0.12536 0.60176
 C1798 C 0.80280 0.13179 0.62334
 C1799 C 0.79032 0.12066 0.63812
 C1800 C 0.77852 0.10302 0.63144
 C1801 C 0.75633 0.05347 0.57369
 C1802 C 0.75728 0.04691 0.55216
 C1803 C 0.76975 0.05804 0.53738
 C1804 C 0.78136 0.07582 0.54402
 C1805 C 0.75332 0.06706 0.61799
 C1806 C 0.74166 0.05781 0.63036
 C1807 C 0.80490 0.11298 0.55696
 C1808 C 0.81493 0.12293 0.54371
 H1809 H 0.81354 0.13451 0.59087
 H1810 H 0.81194 0.14548 0.62861
 H1811 H 0.78977 0.12572 0.65486
 H1812 H 0.76906 0.09486 0.64354
 H1813 H 0.74642 0.04427 0.58458
 H1814 H 0.74830 0.03310 0.54693
 H1815 H 0.77045 0.05287 0.52069
 H1816 H 0.79084 0.08394 0.53191
 C1817 C 0.89612 0.56951 0.21016
 C1818 C 0.89432 0.59174 0.20650
 C1819 C 0.90599 0.60629 0.21954
 C1820 C 0.91940 0.59852 0.23616
 C1821 C 0.92125 0.57628 0.23979
 C1822 C 0.90956 0.56172 0.22676
 C1823 C 0.91163 0.53956 0.23073
 C1824 C 0.92484 0.53199 0.24711
 C1825 C 0.93629 0.54622 0.25982
 C1826 C 0.93458 0.56812 0.25628
 C1827 C 0.90392 0.62845 0.21559
 C1828 C 0.89069 0.63602 0.19922
 C1829 C 0.87928 0.62179 0.18647
 C1830 C 0.88101 0.59989 0.18999
 C1831 C 0.93124 0.61338 0.24956
 C1832 C 0.94105 0.62574 0.26068
 C1833 C 0.88413 0.55461 0.19694
 C1834 C 0.87430 0.54197 0.18619
 H1835 H 0.90306 0.52785 0.22127
 H1836 H 0.92619 0.51500 0.24996
 H1837 H 0.94654 0.54026 0.27252
 H1838 H 0.94380 0.57856 0.26660
 H1839 H 0.91248 0.64015 0.22507
 H1840 H 0.88929 0.65302 0.19641
 H1841 H 0.86902 0.62775 0.17378
 H1842 H 0.87181 0.58944 0.17966
 C1843 C 0.90208 0.42757 0.79521
 C1844 C 0.91553 0.43493 0.77837
 C1845 C 0.92666 0.42002 0.76519
 C1846 C 0.92427 0.39784 0.76893
 C1847 C 0.91101 0.39049 0.78592
 C1848 C 0.89987 0.40541 0.79910
 C1849 C 0.88664 0.39769 0.81594
 C1850 C 0.88447 0.37585 0.81965
 C1851 C 0.89536 0.36127 0.80677
 C1852 C 0.90849 0.36842 0.79008
 C1853 C 0.93996 0.42776 0.74841
 C1854 C 0.94218 0.44959 0.74474
 C1855 C 0.93129 0.46417 0.75760
 C1856 C 0.91811 0.45702 0.77426
 C1857 C 0.93522 0.38264 0.75507
 C1858 C 0.94429 0.37026 0.74328
 C1859 C 0.89030 0.44283 0.80827
 C1860 C 0.88050 0.45572 0.81881
 H1861 H 0.87787 0.40841 0.82640
 H1862 H 0.87428 0.37022 0.83260
 H1863 H 0.89361 0.34433 0.80973
 H1864 H 0.91665 0.35647 0.78051
 H1865 H 0.94877 0.41706 0.73797
 H1866 H 0.95241 0.45523 0.73182
 H1867 H 0.93304 0.48111 0.75466
 H1868 H 0.91000 0.46898 0.78384
 C1869 C 0.10583 0.57532 0.78993
 C1870 C 0.08861 0.58614 0.79990
 C1871 C 0.07663 0.60135 0.78795
 C1872 C 0.08196 0.60564 0.76612
 C1873 C 0.09935 0.59503 0.75623
 C1874 C 0.11133 0.57983 0.76817
 C1875 C 0.12860 0.56936 0.75792
 C1876 C 0.13389 0.57380 0.73648
 C1877 C 0.12218 0.58866 0.72479
 C1878 C 0.10510 0.59920 0.73447
 C1879 C 0.05943 0.61189 0.79822
 C1880 C 0.05421 0.60755 0.81970
 C1881 C 0.06592 0.59269 0.83139
 C1882 C 0.08294 0.58205 0.82169
 C1883 C 0.06933 0.62061 0.75363
 C1884 C 0.05891 0.63275 0.74284
 C1885 C 0.11765 0.55929 0.80187
 C1886 C 0.12746 0.54578 0.81153
 H1887 H 0.13820 0.55768 0.76633
 H1888 H 0.14715 0.56565 0.72889
 H1889 H 0.12635 0.59204 0.70814
 H1890 H 0.09649 0.61063 0.72471
 H1891 H 0.04986 0.62359 0.78979
 H1892 H 0.04101 0.61577 0.82731
 H1893 H 0.06181 0.58938 0.84808
 H1894 H 0.09158 0.57064 0.83145
 C1895 C 0.10147 0.42809 0.20843
 C1896 C 0.08585 0.41504 0.19856
 C1897 C 0.07451 0.39979 0.21113
 C1898 C 0.07885 0.39767 0.23350
 C1899 C 0.09457 0.41062 0.24334
 C1900 C 0.10591 0.42587 0.23078
 C1901 C 0.12151 0.43867 0.24101
 C1902 C 0.12579 0.43646 0.26300
 C1903 C 0.11471 0.42155 0.27528
 C1904 C 0.09927 0.40873 0.26566
 C1905 C 0.05894 0.38696 0.20092
 C1906 C 0.05470 0.38914 0.17890
 C1907 C 0.06579 0.40405 0.16661
 C1908 C 0.08120 0.41690 0.17624
 C1909 C 0.06700 0.38241 0.24649
 C1910 C 0.05723 0.36999 0.25764
 C1911 C 0.11289 0.44391 0.19571
 C1912 C 0.12248 0.45719 0.18547
 H1913 H 0.13056 0.45050 0.23214
 H1914 H 0.13777 0.44638 0.27056
 H1915 H 0.11809 0.41989 0.29237
 H1916 H 0.09109 0.39736 0.27590
 H1917 H 0.04991 0.37514 0.20980
 H1918 H 0.04274 0.37920 0.17134
 H1919 H 0.06243 0.40567 0.14952
 H1920 H 0.08942 0.42826 0.16602
   
