data_POSCAR
  _audit_creation_date              2014-09-24
  _audit_creation_method            'ToBaCCo'
  _symmetry_space_group_name_H-M    'P1'
  _symmetry_Int_Tables_number       1
  _symmetry_cell_setting            triclinic
  loop_
  _symmetry_equiv_pos_as_xyz
 x,y,z
_cell_length_a 87.0948
_cell_length_b 87.0781
_cell_length_c 87.4318
_cell_angle_alpha 90.013900
_cell_angle_beta 90.027900
_cell_angle_gamma 90.025200
loop_
  _atom_site_label
  _atom_site_type_symbol
  _atom_site_fract_x
  _atom_site_fract_y
  _atom_site_fract_z
C1 C 0.31884 0.45068 0.93070
 C2 C 0.31221 0.45709 0.91754
 C3 C 0.29926 0.45027 0.91088
 C4 C 0.29274 0.43709 0.91739
 C5 C 0.29923 0.43053 0.93054
 C6 C 0.31235 0.43733 0.93723
 C7 C 0.33204 0.45719 0.93723
 C8 C 0.33882 0.45047 0.95013
 C9 C 0.33236 0.43727 0.95669
 C10 C 0.31915 0.43062 0.95030
 C11 C 0.31282 0.41720 0.95654
 C12 C 0.29986 0.41043 0.94984
 C13 C 0.29304 0.41711 0.93694
 H14 H 0.31723 0.46722 0.91235
 H15 H 0.28278 0.43184 0.91207
 H16 H 0.33716 0.46735 0.93214
 H17 H 0.33773 0.43205 0.96661
 H18 H 0.31809 0.41188 0.96645
 H19 H 0.28308 0.41171 0.93177
 C20 C 0.45087 0.82043 0.43012
 C21 C 0.45718 0.83366 0.43680
 C22 C 0.45032 0.84025 0.44973
 C23 C 0.43718 0.83356 0.45618
 C24 C 0.43072 0.82033 0.44964
 C25 C 0.43757 0.81373 0.43655
 C26 C 0.45740 0.81399 0.41693
 C27 C 0.45076 0.80103 0.41012
 C28 C 0.43764 0.79430 0.41652
 C29 C 0.43095 0.80059 0.42970
 C30 C 0.41756 0.79421 0.43595
 C31 C 0.41074 0.80084 0.44887
 C32 C 0.41733 0.81380 0.45574
 H33 H 0.46729 0.83895 0.43180
 H34 H 0.43186 0.83877 0.46612
 H35 H 0.46749 0.81918 0.41182
 H36 H 0.43251 0.78434 0.41108
 H37 H 0.41230 0.78424 0.43065
 H38 H 0.41190 0.81890 0.46567
 C39 C 0.94762 0.92796 0.82267
 C40 C 0.95414 0.91501 0.81568
 C41 C 0.94751 0.90876 0.80245
 C42 C 0.93437 0.91550 0.79606
 C43 C 0.92770 0.92844 0.80291
 C44 C 0.93433 0.93472 0.81629
 C45 C 0.95400 0.93412 0.83608
 C46 C 0.94721 0.94687 0.84316
 C47 C 0.93406 0.95362 0.83682
 C48 C 0.92754 0.94760 0.82341
 C49 C 0.91420 0.95408 0.81714
 C50 C 0.90761 0.94780 0.80392
 C51 C 0.91437 0.93508 0.79680
 H52 H 0.96425 0.90968 0.82063
 H53 H 0.92924 0.91055 0.78587
 H54 H 0.96412 0.92888 0.84110
 H55 H 0.92881 0.96344 0.84239
 H56 H 0.90883 0.96388 0.82261
 H57 H 0.90913 0.93025 0.78661
 C58 C 0.45016 -0.06844 0.31978
 C59 C 0.45654 -0.08160 0.31305
 C60 C 0.44962 -0.08823 0.30017
 C61 C 0.43641 -0.08166 0.29381
 C62 C 0.42989 -0.06849 0.30038
 C63 C 0.43676 -0.06185 0.31345
 C64 C 0.45672 -0.06196 0.33295
 C65 C 0.45001 -0.04908 0.33983
 C66 C 0.43679 -0.04246 0.33352
 C67 C 0.43007 -0.04879 0.32035
 C68 C 0.41660 -0.04251 0.31418
 C69 C 0.40976 -0.04917 0.30127
 C70 C 0.41641 -0.06207 0.29435
 H71 H 0.46670 -0.08684 0.31796
 H72 H 0.43108 -0.08695 0.28391
 H73 H 0.46689 -0.06707 0.33800
 H74 H 0.43161 -0.03256 0.33900
 H75 H 0.41129 -0.03260 0.31951
 H76 H 0.41097 -0.06720 0.28443
 C77 C 0.82118 0.30136 0.32216
 C78 C 0.81435 0.29471 0.33510
 C79 C 0.80120 0.30129 0.34157
 C80 C 0.79467 0.31447 0.33508
 C81 C 0.80135 0.32127 0.32215
 C82 C 0.81467 0.31471 0.31565
 C83 C 0.83459 0.29511 0.31583
 C84 C 0.84154 0.30208 0.30316
 C85 C 0.83506 0.31526 0.29663
 C86 C 0.82165 0.32166 0.30281
 C87 C 0.81530 0.33509 0.29660
 C88 C 0.80214 0.34162 0.30312
 C89 C 0.79515 0.33470 0.31580
 H90 H 0.81939 0.28458 0.34028
 H91 H 0.78455 0.31954 0.34025
 H92 H 0.83976 0.28496 0.32086
 H93 H 0.84059 0.32063 0.28688
 H94 H 0.82069 0.34059 0.28685
 H95 H 0.78503 0.33992 0.32083
 C96 C -0.19985 0.82087 0.81990
 C97 C -0.20594 0.83450 0.81385
 C98 C -0.19911 0.84143 0.80107
 C99 C -0.18625 0.83469 0.79416
 C100 C -0.18002 0.82107 0.80007
 C101 C -0.18683 0.81412 0.81301
 C102 C -0.20636 0.81405 0.83291
 C103 C -0.19996 0.80066 0.83909
 C104 C -0.18710 0.79389 0.83223
 C105 C -0.18045 0.80055 0.81921
 C106 C -0.16734 0.79409 0.81247
 C107 C -0.16056 0.80106 0.79971
 C108 C -0.16692 0.81444 0.79348
 H109 H -0.21583 0.83982 0.81921
 H110 H -0.18097 0.84015 0.78432
 H111 H -0.21625 0.81926 0.83838
 H112 H -0.18216 0.78360 0.83717
 H113 H -0.16227 0.78378 0.81727
 H114 H -0.16151 0.81981 0.78366
 C115 C 0.92992 0.32101 0.44825
 C116 C 0.93635 0.33439 0.45448
 C117 C 0.94907 0.34133 0.44750
 C118 C 0.95555 0.33484 0.43432
 C119 C 0.94926 0.32145 0.42795
 C120 C 0.93637 0.31450 0.43491
 C121 C 0.91695 0.31419 0.45492
 C122 C 0.91038 0.30104 0.44838
 C123 C 0.91681 0.29453 0.43520
 C124 C 0.92978 0.30118 0.42839
 C125 C 0.93609 0.29496 0.41498
 C126 C 0.94882 0.30192 0.40807
 C127 C 0.95543 0.31507 0.41456
 H128 H 0.93134 0.33953 0.46463
 H129 H 0.96534 0.34031 0.42892
 H130 H 0.91182 0.31921 0.46506
 H131 H 0.91157 0.28442 0.43017
 H132 H 0.93099 0.28485 0.40981
 H133 H 0.96522 0.32042 0.40906
 C134 C 0.43026 0.45077 0.82003
 C135 C 0.43676 0.45709 0.83329
 C136 C 0.44976 0.45035 0.83993
 C137 C 0.45644 0.43733 0.83328
 C138 C 0.45007 0.43084 0.82003
 C139 C 0.43691 0.43757 0.81336
 C140 C 0.41703 0.45721 0.81351
 C141 C 0.41039 0.45057 0.80049
 C142 C 0.41699 0.43752 0.79381
 C143 C 0.43023 0.43093 0.80018
 C144 C 0.43672 0.41764 0.79383
 C145 C 0.44972 0.41095 0.80051
 C146 C 0.45642 0.41756 0.81351
 H147 H 0.43161 0.46710 0.83859
 H148 H 0.46644 0.43213 0.83857
 H149 H 0.41175 0.46723 0.81866
 H150 H 0.41169 0.43240 0.78381
 H151 H 0.43155 0.41236 0.78383
 H152 H 0.46641 0.41222 0.81867
 C153 C 0.82280 0.92771 0.94795
 C154 C 0.81612 0.91464 0.95458
 C155 C 0.80298 0.90802 0.94807
 C156 C 0.79635 0.91450 0.93496
 C157 C 0.80287 0.92756 0.92820
 C158 C 0.81616 0.93421 0.93470
 C159 C 0.83618 0.93420 0.95414
 C160 C 0.84297 0.94704 0.94721
 C161 C 0.83633 0.95356 0.93412
 C162 C 0.82297 0.94720 0.92778
 C163 C 0.81647 0.95341 0.91447
 C164 C 0.80335 0.94674 0.90800
 C165 C 0.79653 0.93390 0.91486
 H166 H 0.82126 0.90951 0.96467
 H167 H 0.78625 0.90924 0.92990
 H168 H 0.84143 0.92915 0.96422
 H169 H 0.84169 0.96344 0.92875
 H170 H 0.82171 0.96329 0.90901
 H171 H 0.78644 0.92875 0.90970
 C172 C 0.32101 0.82147 0.30038
 C173 C 0.31492 0.83506 0.29427
 C174 C 0.30199 0.84191 0.30095
 C175 C 0.29496 0.83511 0.31368
 C176 C 0.30090 0.82150 0.31993
 C177 C 0.31400 0.81464 0.31327
 C178 C 0.33421 0.81478 0.29406
 C179 C 0.34046 0.80145 0.30051
 C180 C 0.33346 0.79458 0.31321
 C181 C 0.32025 0.80112 0.31968
 C182 C 0.31340 0.79459 0.33266
 C183 C 0.30047 0.80147 0.33929
 C184 C 0.29420 0.81482 0.33291
 H185 H 0.32038 0.84043 0.28448
 H186 H 0.28501 0.84051 0.31886
 H187 H 0.33979 0.82007 0.28430
 H188 H 0.33846 0.78432 0.31818
 H189 H 0.31824 0.78432 0.33776
 H190 H 0.28427 0.82012 0.33820
 C191 C 0.82211 0.42851 0.44794
 C192 C 0.81537 0.41556 0.45472
 C193 C 0.80222 0.40892 0.44828
 C194 C 0.79562 0.41524 0.43509
 C195 C 0.80221 0.42819 0.42816
 C196 C 0.81553 0.43486 0.43459
 C197 C 0.83551 0.43501 0.45408
 C198 C 0.84237 0.44772 0.44699
 C199 C 0.83580 0.45410 0.43380
 C200 C 0.82241 0.44773 0.42752
 C201 C 0.81595 0.45379 0.41412
 C202 C 0.80280 0.44710 0.40773
 C203 C 0.79591 0.43439 0.41475
 H204 H 0.82044 0.41051 0.46487
 H205 H 0.78552 0.40992 0.43012
 H206 H 0.84070 0.43007 0.46423
 H207 H 0.84122 0.46388 0.42832
 H208 H 0.82126 0.46356 0.40853
 H209 H 0.78580 0.42923 0.40964
 C210 C 0.95046 0.82033 -0.07184
 C211 C 0.95663 0.83378 -0.06548
 C212 C 0.94978 0.84054 -0.05264
 C213 C 0.93681 0.83380 -0.04595
 C214 C 0.93048 0.82036 -0.05216
 C215 C 0.93731 0.81358 -0.06517
 C216 C 0.95697 0.81373 -0.08495
 C217 C 0.95043 0.80055 -0.09150
 C218 C 0.93744 0.79378 -0.08484
 C219 C 0.93080 0.80023 -0.07171
 C220 C 0.91753 0.79382 -0.06523
 C221 C 0.91072 0.80062 -0.05240
 C222 C 0.91721 0.81379 -0.04583
 H223 H 0.96661 0.83915 -0.07064
 H224 H 0.93152 0.83918 -0.03607
 H225 H 0.96696 0.81898 -0.09022
 H226 H 0.93235 0.78366 -0.09003
 H227 H 0.91233 0.78370 -0.07031
 H228 H 0.91177 0.81904 -0.03598
 C229 C 0.31927 0.31964 0.80056
 C230 C 0.31300 0.33311 0.79436
 C231 C 0.30000 0.33983 0.80101
 C232 C 0.29305 0.33304 0.81377
 C233 C 0.29917 0.31957 0.82012
 C234 C 0.31236 0.31284 0.81351
 C235 C 0.33255 0.31305 0.79428
 C236 C 0.33896 0.29985 0.80084
 C237 C 0.33208 0.29304 0.81363
 C238 C 0.31880 0.29947 0.82006
 C239 C 0.31208 0.29301 0.83313
 C240 C 0.29908 0.29977 0.83972
 C241 C 0.29259 0.31295 0.83319
 H242 H 0.31836 0.33853 0.78455
 H243 H 0.28306 0.33839 0.81890
 H244 H 0.33805 0.31831 0.78445
 H245 H 0.33721 0.28289 0.81870
 H246 H 0.31709 0.28288 0.83835
 H247 H 0.28259 0.31817 0.83845
 C248 C 0.17859 0.55227 0.57215
 C249 C 0.16554 0.54576 0.56532
 C250 C 0.15919 0.55236 0.55215
 C251 C 0.16593 0.56540 0.54560
 C252 C 0.17899 0.57205 0.55227
 C253 C 0.18536 0.56549 0.56562
 C254 C 0.18479 0.54602 0.58560
 C255 C 0.19756 0.55288 0.59256
 C256 C 0.20434 0.56592 0.58605
 C257 C 0.19830 0.57232 0.57261
 C258 C 0.20474 0.58563 0.56624
 C259 C 0.19834 0.59217 0.55306
 C260 C 0.18557 0.58537 0.54605
 H261 H 0.16015 0.53575 0.57038
 H262 H 0.16084 0.57050 0.53547
 H263 H 0.17955 0.53599 0.59079
 H264 H 0.21416 0.57120 0.59158
 H265 H 0.21457 0.59104 0.57164
 H266 H 0.18063 0.59059 0.53592
 C267 C 0.57346 0.69740 0.07268
 C268 C 0.58675 0.70339 0.06586
 C269 C 0.59301 0.69635 0.05287
 C270 C 0.58599 0.68335 0.04654
 C271 C 0.57269 0.67721 0.05321
 C272 C 0.56638 0.68425 0.06634
 C273 C 0.56726 0.70416 0.08586
 C274 C 0.55416 0.69790 0.09275
 C275 C 0.54707 0.68492 0.08644
 C276 C 0.55312 0.67800 0.07327
 C277 C 0.54631 0.66480 0.06705
 C278 C 0.55264 0.65781 0.05408
 C279 C 0.56575 0.66401 0.04714
 H280 H 0.59233 0.71339 0.07073
 H281 H 0.59099 0.67793 0.03654
 H282 H 0.57272 0.71416 0.09089
 H283 H 0.53697 0.68011 0.09191
 H284 H 0.53622 0.65985 0.07238
 H285 H 0.57061 0.65845 0.03716
 C286 C 0.69807 0.17802 0.67886
 C287 C 0.70434 0.18425 0.66544
 C288 C 0.69747 0.19700 0.65847
 C289 C 0.68437 0.20371 0.66491
 C290 C 0.67794 0.19762 0.67831
 C291 C 0.68479 0.18471 0.68532
 C292 C 0.70464 0.16504 0.68574
 C293 C 0.69805 0.15868 0.69892
 C294 C 0.68492 0.16535 0.70540
 C295 C 0.67822 0.17834 0.69866
 C296 C 0.66486 0.18486 0.70483
 C297 C 0.65804 0.19760 0.69780
 C298 C 0.66459 0.20401 0.68464
 H299 H 0.71443 0.17908 0.66030
 H300 H 0.67908 0.21351 0.65936
 H301 H 0.71474 0.15976 0.68072
 H302 H 0.67981 0.16031 0.71554
 H303 H 0.65963 0.17992 0.71496
 H304 H 0.65917 0.21382 0.67922
 C305 C 1.06943 0.04893 0.17946
 C306 C 1.08265 0.04254 0.18604
 C307 C 1.08919 0.04918 0.19911
 C308 C 1.08247 0.06216 0.20579
 C309 C 1.06925 0.06871 0.19936
 C310 C 1.06269 0.06210 0.18612
 C311 C 1.06302 0.04262 0.16614
 C312 C 1.05004 0.04934 0.15942
 C313 C 1.04329 0.06235 0.16606
 C314 C 1.04956 0.06881 0.17938
 C315 C 1.04314 0.08207 0.18588
 C316 C 1.04973 0.08866 0.19895
 C317 C 1.06268 0.08197 0.20571
 H318 H 1.08801 0.03256 0.18089
 H319 H 1.08768 0.06728 0.21585
 H320 H 1.06826 0.03261 0.16089
 H321 H 1.03331 0.06757 0.16075
 H322 H 1.03318 0.08741 0.18066
 H323 H 1.06776 0.08722 0.21577
 C324 C 0.04990 0.17925 1.07008
 C325 C 0.04331 0.16614 1.06341
 C326 C 0.05015 0.15930 1.05059
 C327 C 0.06352 0.16561 1.04426
 C328 C 0.07025 0.17870 1.05079
 C329 C 0.06343 0.18556 1.06376
 C330 C 0.04338 0.18595 1.08314
 C331 C 0.05026 0.19880 1.08993
 C332 C 0.06362 0.20515 1.08364
 C333 C 0.07030 0.19859 1.07058
 C334 C 0.08389 0.20461 1.06440
 C335 C 0.09067 0.19773 1.05159
 C336 C 0.08384 0.18487 1.04477
 H337 H 0.03302 0.16115 1.06832
 H338 H 0.06882 0.16019 1.03440
 H339 H 0.03310 0.18106 1.08817
 H340 H 0.06892 0.21503 1.08904
 H341 H 0.08932 0.21450 1.06966
 H342 H 0.08924 0.17957 1.03492
 C343 C 0.17744 0.67785 0.69592
 C344 C 0.16413 0.68433 0.70223
 C345 C 0.15741 0.69728 0.69548
 C346 C 0.16402 0.70395 0.68247
 C347 C 0.17736 0.69764 0.67603
 C348 C 0.18410 0.68452 0.68276
 C349 C 0.18405 0.66466 0.70235
 C350 C 0.19714 0.65808 0.69575
 C351 C 0.20382 0.66472 0.68276
 C352 C 0.19737 0.67791 0.67619
 C353 C 0.20376 0.68445 0.66298
 C354 C 0.19701 0.69741 0.65629
 C355 C 0.18390 0.70402 0.66282
 H356 H 0.15886 0.67921 0.71224
 H357 H 0.15867 0.71390 0.67727
 H358 H 0.17892 0.65937 0.71236
 H359 H 0.21390 0.65947 0.67769
 H360 H 0.21386 0.67936 0.65779
 H361 H 0.17870 0.71399 0.65749
 C362 C 1.19904 0.17875 0.17876
 C363 C 1.20560 0.16566 0.18544
 C364 C 1.19924 0.15935 0.19876
 C365 C 1.18637 0.16618 0.20558
 C366 C 1.17968 0.17927 0.19903
 C367 C 1.18601 0.18559 0.18555
 C368 C 1.20506 0.18492 0.16521
 C369 C 1.19818 0.19776 0.15842
 C370 C 1.18532 0.20463 0.16518
 C371 C 1.17914 0.19860 0.17872
 C372 C 1.16603 0.20514 0.18537
 C373 C 1.15972 0.19878 0.19868
 C374 C 1.16656 0.18595 0.20553
 H375 H 1.21549 0.16025 0.18016
 H376 H 1.18144 0.16118 0.21583
 H377 H 1.21495 0.17964 0.15982
 H378 H 1.18002 0.21450 0.15977
 H379 H 1.16058 0.21500 0.18010
 H380 H 1.16152 0.18106 0.21578
 C381 C 0.67916 1.07210 0.55199
 C382 C 0.66588 1.06587 0.54532
 C383 C 0.65899 1.05277 0.55161
 C384 C 0.66541 1.04570 0.56450
 C385 C 0.67868 1.05176 0.57131
 C386 C 0.68560 1.06504 0.56505
 C387 C 0.68592 1.08545 0.54604
 C388 C 0.69894 1.09182 0.55304
 C389 C 0.70539 1.08477 0.56595
 C390 C 0.69878 1.07141 0.57204
 C391 C 0.70490 1.06451 0.58520
 C392 C 0.69796 1.05142 0.59144
 C393 C 0.68495 1.04502 0.58448
 H394 H 0.66076 1.07132 0.53540
 H395 H 0.65993 1.03562 0.56935
 H396 H 0.68092 1.09101 0.53610
 H397 H 0.71540 1.08981 0.57138
 H398 H 0.71488 1.06945 0.59075
 H399 H 0.67959 1.03496 0.58947
 C400 C 0.55163 0.57253 0.17804
 C401 C 0.54528 0.56617 0.16472
 C402 C 0.55164 0.55289 0.15827
 C403 C 0.56430 0.54578 0.16516
 C404 C 0.57079 0.55198 0.17849
 C405 C 0.56445 0.56542 0.18497
 C406 C 0.54562 0.58606 0.18436
 C407 C 0.55231 0.59254 0.19743
 C408 C 0.56495 0.58547 0.20438
 C409 C 0.57111 0.57193 0.19822
 C410 C 0.58402 0.56498 0.20485
 C411 C 0.59034 0.55171 0.19835
 C412 C 0.58372 0.54519 0.18527
 H413 H 0.53555 0.57165 0.15924
 H414 H 0.56921 0.53556 0.16001
 H415 H 0.53590 0.59169 0.17900
 H416 H 0.57012 0.59064 0.21443
 H417 H 0.58932 0.57001 0.21490
 H418 H 0.58878 0.53498 0.18026
 C419 C 0.67892 0.69853 0.17709
 C420 C 0.66556 0.70492 0.18340
 C421 C 0.65902 0.69854 0.19659
 C422 C 0.66584 0.68581 0.20364
 C423 C 0.67919 0.67927 0.19748
 C424 C 0.68577 0.68563 0.18413
 C425 C 0.68536 0.70460 0.16369
 C426 C 0.69848 0.69789 0.15728
 C427 C 0.70535 0.68516 0.16428
 C428 C 0.69906 0.67894 0.17769
 C429 C 0.70562 0.66597 0.18459
 C430 C 0.69902 0.65962 0.19776
 C431 C 0.68590 0.66628 0.20422
 H432 H 0.66013 0.71470 0.17797
 H433 H 0.66063 0.68090 0.21379
 H434 H 0.68007 0.71439 0.15812
 H435 H 0.71545 0.68000 0.15917
 H436 H 0.71572 0.66066 0.17961
 H437 H 0.68082 0.66122 0.21436
 C438 C 0.17926 0.05015 1.07086
 C439 C 0.16609 0.04382 1.06408
 C440 C 0.15943 0.05082 1.05126
 C441 C 0.16600 0.06413 1.04502
 C442 C 0.17917 0.07060 1.05166
 C443 C 0.18583 0.06361 1.06465
 C444 C 0.18577 0.04345 1.08394
 C445 C 0.19869 0.05010 1.09086
 C446 C 0.20529 0.06339 1.08465
 C447 C 0.19892 0.07022 1.07158
 C448 C 0.20522 0.08373 1.06549
 C449 C 0.19855 0.09067 1.05265
 C450 C 0.18562 0.08410 1.04572
 H451 H 0.16090 0.03357 1.06891
 H452 H 0.16074 0.06956 1.03515
 H453 H 0.18066 0.03321 1.08885
 H454 H 0.21523 0.06853 1.09011
 H455 H 0.21518 0.08897 1.07083
 H456 H 0.18049 0.08963 1.03584
 C457 C 0.57303 0.17744 0.55418
 C458 C 0.58640 0.18388 0.54793
 C459 C 0.59308 0.19687 0.55464
 C460 C 0.58639 0.20362 0.56757
 C461 C 0.57303 0.19733 0.57397
 C462 C 0.56631 0.18417 0.56727
 C463 C 0.56647 0.16419 0.54779
 C464 C 0.55335 0.15764 0.55437
 C465 C 0.54661 0.16434 0.56728
 C466 C 0.55303 0.17758 0.57382
 C467 C 0.54661 0.18413 0.58700
 C468 C 0.55335 0.19710 0.59369
 C469 C 0.56646 0.20374 0.58716
 H470 H 0.59174 0.17867 0.53800
 H471 H 0.59172 0.21361 0.57274
 H472 H 0.57166 0.15884 0.53786
 H473 H 0.53652 0.15911 0.57236
 H474 H 0.53653 0.17902 0.59221
 H475 H 0.57164 0.21373 0.59248
 C476 C 0.07124 0.55192 0.67866
 C477 C 0.08459 0.54587 0.68533
 C478 C 0.09114 0.55296 0.69816
 C479 C 0.08433 0.56607 0.70449
 C480 C 0.07098 0.57228 0.69797
 C481 C 0.06439 0.56519 0.68499
 C482 C 0.06483 0.54516 0.66556
 C483 C 0.05174 0.55154 0.65875
 C484 C 0.04486 0.56462 0.66508
 C485 C 0.05113 0.57153 0.67816
 C486 C 0.04459 0.58490 0.68432
 C487 C 0.05121 0.59197 0.69712
 C488 C 0.06431 0.58565 0.70397
 H489 H 0.09002 0.53580 0.68043
 H490 H 0.08956 0.57155 0.71435
 H491 H 0.07014 0.53511 0.66050
 H492 H 0.03480 0.56955 0.65965
 H493 H 0.03452 0.58995 0.67904
 H494 H 0.06941 0.59127 0.71381
 C495 C 0.67736 0.57171 0.05241
 C496 C 0.66386 0.56541 0.04629
 C497 C 0.65733 0.55224 0.05283
 C498 C 0.66433 0.54519 0.06543
 C499 C 0.67783 0.55133 0.07169
 C500 C 0.68439 0.56466 0.06518
 C501 C 0.68378 0.58511 0.04621
 C502 C 0.69704 0.59153 0.05266
 C503 C 0.70408 0.58451 0.06527
 C504 C 0.69782 0.57111 0.07162
 C505 C 0.70454 0.56423 0.08449
 C506 C 0.69795 0.55108 0.09099
 C507 C 0.68470 0.54460 0.08457
 H508 H 0.65830 0.57084 0.03660
 H509 H 0.65913 0.53506 0.07047
 H510 H 0.67836 0.59068 0.03652
 H511 H 0.71429 0.58963 0.07024
 H512 H 0.71473 0.56921 0.08962
 H513 H 0.67963 0.53449 0.08975
 C514 C 0.05170 0.67867 0.57131
 C515 C 0.04566 0.68520 0.58469
 C516 C 0.05279 0.69796 0.59140
 C517 C 0.06592 0.70438 0.58471
 C518 C 0.07212 0.69800 0.57134
 C519 C 0.06500 0.68507 0.56460
 C520 C 0.04486 0.66567 0.56469
 C521 C 0.05121 0.65903 0.55154
 C522 C 0.06436 0.66540 0.54483
 C523 C 0.07134 0.67839 0.55129
 C524 C 0.08470 0.68465 0.54486
 C525 C 0.09177 0.69742 0.55160
 C526 C 0.08548 0.70411 0.56476
 H527 H 0.03555 0.68026 0.59001
 H528 H 0.07141 0.71420 0.59005
 H529 H 0.03475 0.66059 0.56986
 H530 H 0.06925 0.66010 0.53472
 H531 H 0.08972 0.67950 0.53474
 H532 H 0.09110 0.71394 0.56995
 C533 C 0.55153 1.07211 0.67726
 C534 C 0.54544 1.06571 0.66384
 C535 C 0.55212 1.05258 0.65737
 C536 C 0.56486 1.04568 0.66436
 C537 C 0.57109 1.05193 0.67780
 C538 C 0.56441 1.06520 0.68429
 C539 C 0.54515 1.08545 0.68362
 C540 C 0.55153 1.09194 0.69684
 C541 C 0.56424 1.08508 0.70388
 C542 C 0.57077 1.07173 0.69767
 C543 C 0.58372 1.06497 0.70442
 C544 C 0.59037 1.05185 0.69792
 C545 C 0.58405 1.04532 0.68469
 H546 H 0.53564 1.07106 0.65832
 H547 H 0.57004 1.03558 0.65923
 H548 H 0.53537 1.09091 0.67820
 H549 H 0.56915 1.09025 0.71406
 H550 H 0.58878 1.07000 0.71460
 H551 H 0.58935 1.03524 0.67968
 C552 C 0.42993 0.31990 0.95050
 C553 C 0.43613 0.33333 0.95686
 C554 C 0.44907 0.34026 0.95028
 C555 C 0.45603 0.33368 0.93738
 C556 C 0.44997 0.32025 0.93087
 C557 C 0.43685 0.31333 0.93742
 C558 C 0.41674 0.31312 0.95674
 C559 C 0.41039 0.29995 0.95004
 C560 C 0.41727 0.29336 0.93713
 C561 C 0.43048 0.29999 0.93074
 C562 C 0.43722 0.29372 0.91758
 C563 C 0.45017 0.30065 0.91105
 C564 C 0.45658 0.31381 0.91772
 H565 H 0.43074 0.33853 0.96678
 H566 H 0.46599 0.33915 0.93228
 H567 H 0.41125 0.31820 0.96667
 H568 H 0.41220 0.28323 0.93196
 H569 H 0.43228 0.28360 0.91226
 H570 H 0.46655 0.31915 0.91251
 C571 C 0.92729 0.44653 0.32362
 C572 C 0.93401 0.45260 0.33690
 C573 C 0.94696 0.44558 0.34337
 C574 C 0.95337 0.43251 0.33652
 C575 C 0.94680 0.42630 0.32323
 C576 C 0.93370 0.43331 0.31674
 C577 C 0.91413 0.45326 0.31724
 C578 C 0.90734 0.44692 0.30416
 C579 C 0.91370 0.43387 0.29728
 C580 C 0.92686 0.42698 0.30350
 C581 C 0.93314 0.41372 0.29689
 C582 C 0.94608 0.40675 0.30338
 C583 C 0.95293 0.41304 0.31647
 H584 H 0.92905 0.46267 0.34230
 H585 H 0.96335 0.42709 0.34162
 H586 H 0.90906 0.46332 0.32254
 H587 H 0.90830 0.42898 0.28721
 H588 H 0.92787 0.40870 0.28681
 H589 H 0.96289 0.40749 0.32146
 C590 C 0.32188 0.94943 0.42819
 C591 C 0.31570 0.95560 0.41471
 C592 C 0.30276 0.94889 0.40793
 C593 C 0.29581 0.93604 0.41464
 C594 C 0.30184 0.92972 0.42812
 C595 C 0.31494 0.93642 0.43494
 C596 C 0.33504 0.95586 0.43488
 C597 C 0.34132 0.94939 0.44817
 C598 C 0.33441 0.93653 0.45492
 C599 C 0.32125 0.92997 0.44837
 C600 C 0.31444 0.91690 0.45485
 C601 C 0.30150 0.91023 0.44802
 C602 C 0.29518 0.91664 0.43475
 H603 H 0.32104 0.96550 0.40937
 H604 H 0.28584 0.93087 0.40925
 H605 H 0.34051 0.96575 0.42965
 H606 H 0.33939 0.93152 0.46515
 H607 H 0.31931 0.91178 0.46507
 H608 H 0.28522 0.91133 0.42950
 O609 O 0.26964 0.45969 0.75197
 O610 O 0.26744 0.46442 0.72582
 O611 O 0.29074 0.50006 0.77017
 O612 O 0.28621 0.52530 0.77088
 O613 O 0.25019 0.48087 0.79169
 O614 O 0.22409 0.48297 0.78656
 O615 O 0.24936 0.54062 0.73039
 O616 O 0.27538 0.53614 0.73329
 O617 O 0.22982 0.50154 0.71084
 O618 O 0.22984 0.47493 0.71551
 O619 O 0.20978 0.52082 0.74955
 O620 O 0.21510 0.52029 0.77691
 O621 O 0.23080 0.54098 0.74877
 O622 O 0.23248 0.53553 0.77729
 O623 O 0.20940 0.50198 0.73152
 O624 O 0.21625 0.47282 0.73451
 O625 O 0.24815 0.52021 0.71077
 O626 O 0.27596 0.51491 0.71566
 O627 O 0.25089 0.45977 0.77021
 O628 O 0.22316 0.46585 0.76677
 O629 O 0.26865 0.49946 0.79174
 O630 O 0.26661 0.52739 0.78522
 O631 O 0.29067 0.48116 0.75214
 O632 O 0.28449 0.48434 0.72453
 Zr633 Zr 0.26844 0.48191 0.74263
 O634 O 0.25466 0.49517 0.72792
 Zr635 Zr 0.26831 0.50897 0.76952
 O636 O 0.25517 0.52366 0.75558
 Zr637 Zr 0.24122 0.48202 0.76940
 O638 O 0.22656 0.49587 0.75604
 Zr639 Zr 0.25866 0.51850 0.73238
 O640 O 0.27358 0.50530 0.74626
 Zr641 Zr 0.23131 0.49184 0.73283
 O642 O 0.24504 0.47696 0.74620
 Zr643 Zr 0.23177 0.51921 0.75934
 O644 O 0.24495 0.50541 0.77436
 O645 O 0.26447 0.48580 0.76574
 O646 O 0.23528 0.51516 0.73619
 C647 C 0.26173 0.45327 0.76259
 C648 C 0.29720 0.48922 0.76258
 C649 C 0.26080 0.48877 0.79820
 C650 C 0.23841 0.54712 0.73777
 C651 C 0.23719 0.51261 0.70451
 C652 C 0.20326 0.51318 0.73883
 H653 H 0.25709 0.49261 0.71716
 H654 H 0.21576 0.49352 0.75861
 H655 H 0.27105 0.47932 0.77234
 H656 H 0.25791 0.53446 0.75777
 H657 H 0.28510 0.53123 0.73655
 H658 H 0.28452 0.53266 0.76244
 H659 H 0.20769 0.47576 0.74134
 H660 H 0.22412 0.45796 0.77490
 H661 H 0.27552 0.52357 0.70831
 H662 H 0.29240 0.47620 0.72552
 H663 H 0.20897 0.51073 0.77643
 H664 H 0.22423 0.49355 0.79070
 H665 H 0.25693 0.46009 0.72618
 H666 H 0.24014 0.47404 0.71084
 H667 H 0.25725 0.52558 0.79139
 H668 H 0.24088 0.54285 0.77507
 O669 O 0.20879 0.01965 0.24873
 O670 O 0.21384 0.01775 0.27484
 O671 O 0.24881 0.04112 0.23007
 O672 O 0.27406 0.03679 0.22903
 O673 O 0.22974 0.00027 0.20892
 O674 O 0.23230 -0.02580 0.21413
 O675 O 0.29015 0.00044 0.26970
 O676 O 0.28538 0.02637 0.26663
 O677 O 0.25145 -0.01935 0.28971
 O678 O 0.22484 -0.01962 0.28531
 O679 O 0.27055 -0.03951 0.25101
 O680 O 0.26976 -0.03450 0.22369
 O681 O 0.29053 -0.01823 0.25141
 O682 O 0.28472 -0.01687 0.22292
 O683 O 0.25184 -0.03995 0.26916
 O684 O 0.22259 -0.03333 0.26638
 O685 O 0.26990 -0.00081 0.28952
 O686 O 0.26432 0.02693 0.28442
 O687 O 0.20887 0.00073 0.23066
 O688 O 0.21541 -0.02690 0.23407
 O689 O 0.24815 0.01890 0.20860
 O690 O 0.27615 0.01707 0.21482
 O691 O 0.23003 0.04097 0.24821
 O692 O 0.23359 0.03505 0.27580
 Zr693 Zr 0.23113 0.01882 0.25784
 O694 O 0.24468 0.00529 0.27253
 Zr695 Zr 0.25791 0.01876 0.23071
 O696 O 0.27287 0.00587 0.24461
 Zr697 Zr 0.23126 -0.00861 0.23123
 O698 O 0.24538 -0.02302 0.24459
 Zr699 Zr 0.26792 0.00949 0.26783
 O700 O 0.25442 0.02416 0.25397
 Zr701 Zr 0.24152 -0.01813 0.26780
 O702 O 0.22639 -0.00466 0.25445
 Zr703 Zr 0.26864 -0.01761 0.24106
 O704 O 0.25457 -0.00468 0.22606
 O705 O 0.23482 0.01472 0.23472
 O706 O 0.26477 -0.01396 0.26423
 C707 C 0.20232 0.01153 0.23829
 C708 C 0.23797 0.04753 0.23770
 C709 C 0.23745 0.01093 0.20229
 C710 C 0.29671 -0.01047 0.26230
 C711 C 0.26248 -0.01180 0.29591
 C712 C 0.26304 -0.04604 0.26182
 H713 H 0.24219 0.00778 0.28328
 H714 H 0.24312 -0.03386 0.24212
 H715 H 0.22819 0.02118 0.22817
 H716 H 0.28362 0.00870 0.24230
 H717 H 0.28036 0.03598 0.26324
 H718 H 0.28156 0.03523 0.23737
 H719 H 0.22553 -0.04191 0.25957
 H720 H 0.20739 -0.02607 0.22606
 H721 H 0.27306 0.02665 0.29169
 H722 H 0.22534 0.04284 0.27485
 H723 H 0.26015 -0.04054 0.22413
 H724 H 0.24282 -0.02550 0.20986
 H725 H 0.20951 0.00724 0.27449
 H726 H 0.22378 -0.00925 0.28981
 H727 H 0.27432 0.00768 0.20870
 H728 H 0.29193 -0.00833 0.22497
 O729 O 0.50009 0.77155 0.29068
 O730 O 0.52629 0.76961 0.28569
 O731 O 0.48124 0.79241 0.25057
 O732 O 0.48049 0.78781 0.22540
 O733 O 0.46014 0.75189 0.27000
 O734 O 0.46531 0.72581 0.26778
 O735 O 0.52123 0.75121 0.20996
 O736 O 0.51805 0.77725 0.21435
 O737 O 0.54122 0.73195 0.24872
 O738 O 0.53678 0.73222 0.27535
 O739 O 0.50245 0.71155 0.22998
 O740 O 0.47506 0.71649 0.23060
 O741 O 0.50290 0.73250 0.20980
 O742 O 0.47422 0.73395 0.21552
 O743 O 0.52066 0.71141 0.24865
 O744 O 0.51789 0.71839 0.27765
 O745 O 0.54104 0.75024 0.23011
 O746 O 0.53600 0.77804 0.23530
 O747 O 0.48197 0.75260 0.29080
 O748 O 0.48534 0.72489 0.28464
 O749 O 0.45980 0.77021 0.25135
 O750 O 0.46609 0.76810 0.22352
 O751 O 0.49946 0.79258 0.26928
 O752 O 0.52720 0.78669 0.26583
 Zr753 Zr 0.50922 0.77044 0.26845
 O754 O 0.52399 0.75675 0.25517
 Zr755 Zr 0.48203 0.76997 0.24171
 O756 O 0.49599 0.75687 0.22701
 Zr757 Zr 0.48252 0.74298 0.26862
 O758 O 0.49597 0.72839 0.25480
 Zr759 Zr 0.51929 0.76060 0.23196
 O760 O 0.50536 0.77546 0.24517
 Zr761 Zr 0.51926 0.73337 0.25863
 O762 O 0.50582 0.74703 0.27347
 Zr763 Zr 0.49244 0.73346 0.23155
 O764 O 0.47736 0.74658 0.24534
 O765 O 0.48602 0.76625 0.26477
 O766 O 0.51568 0.73720 0.23541
 C767 C 0.48962 0.76348 0.29721
 C768 C 0.48884 0.79898 0.26132
 C769 C 0.45348 0.76242 0.26214
 C770 C 0.51386 0.74017 0.20358
 C771 C 0.54743 0.73932 0.23761
 C772 C 0.51331 0.70516 0.23756
 H773 H 0.53479 0.75928 0.25762
 H774 H 0.49349 0.71757 0.25720
 H775 H 0.47943 0.77278 0.27129
 H776 H 0.49368 0.75953 0.21625
 H777 H 0.51475 0.78696 0.21925
 H778 H 0.48875 0.78600 0.21787
 H779 H 0.51101 0.70980 0.27486
 H780 H 0.47726 0.72583 0.29259
 H781 H 0.54326 0.77765 0.22658
 H782 H 0.52622 0.79458 0.27397
 H783 H 0.47539 0.71071 0.24032
 H784 H 0.46103 0.72598 0.25729
 H785 H 0.52602 0.75912 0.29004
 H786 H 0.54155 0.74251 0.27598
 H787 H 0.45999 0.75869 0.22539
 H788 H 0.47635 0.74228 0.20812
 O789 O -0.02022 0.79199 0.75019
 O790 O -0.01812 0.78724 0.72405
 O791 O -0.04122 0.75153 0.76840
 O792 O -0.03659 0.72629 0.76907
 O793 O -0.00068 0.77082 0.78992
 O794 O 0.02535 0.76882 0.78483
 O795 O 0.00015 0.71109 0.72856
 O796 O -0.02587 0.71558 0.73141
 O797 O 0.01968 0.75026 0.70907
 O798 O 0.01944 0.77687 0.71369
 O799 O 0.03974 0.73099 0.74756
 O800 O 0.03454 0.73154 0.77500
 O801 O 0.01875 0.71077 0.74692
 O802 O 0.01722 0.71620 0.77538
 O803 O 0.04006 0.74999 0.72971
 O804 O 0.03301 0.77913 0.73269
 O805 O 0.00143 0.73152 0.70894
 O806 O -0.02644 0.73676 0.71379
 O807 O -0.00145 0.79194 0.76842
 O808 O 0.02632 0.78586 0.76500
 O809 O -0.01908 0.75217 0.78995
 O810 O -0.01696 0.72427 0.78341
 O811 O -0.04124 0.77048 0.75043
 O812 O -0.03516 0.76728 0.72282
 Zr813 Zr -0.01904 0.76976 0.74087
 O814 O -0.00525 0.75656 0.72611
 Zr815 Zr -0.01876 0.74269 0.76772
 O816 O -0.00560 0.72806 0.75373
 Zr817 Zr 0.00825 0.76971 0.76762
 O818 O 0.02293 0.75593 0.75422
 Zr819 Zr -0.00915 0.73321 0.73053
 O820 O -0.02408 0.74636 0.74446
 Zr821 Zr 0.01810 0.75999 0.73103
 O822 O 0.00435 0.77479 0.74444
 Zr823 Zr 0.01780 0.73255 0.75747
 O824 O 0.00460 0.74629 0.77253
 O825 O -0.01500 0.76587 0.76397
 O826 O 0.01423 0.73664 0.73433
 C827 C -0.01229 0.79843 0.76080
 C828 C -0.04773 0.76238 0.76086
 C829 C -0.01126 0.76289 0.79642
 C830 C 0.01110 0.70459 0.73595
 C831 C 0.01239 0.73915 0.70273
 C832 C 0.04622 0.73873 0.73689
 H833 H -0.00770 0.75913 0.71536
 H834 H 0.03372 0.75831 0.75678
 H835 H -0.02157 0.77233 0.77058
 H836 H -0.00831 0.71725 0.75591
 H837 H -0.03555 0.72048 0.73479
 H838 H -0.03485 0.71888 0.76069
 H839 H 0.04157 0.77628 0.73957
 H840 H 0.02533 0.79380 0.77308
 H841 H -0.02595 0.72812 0.70641
 H842 H -0.04306 0.77543 0.72382
 H843 H 0.04072 0.74105 0.77443
 H844 H 0.02541 0.75817 0.78878
 H845 H -0.00759 0.79152 0.72433
 H846 H 0.00918 0.77760 0.70890
 H847 H -0.00758 0.72610 0.78954
 H848 H 0.00873 0.70896 0.77325
 O849 O 0.04117 0.02016 0.00093
 O850 O 0.03628 0.01803 -0.02521
 O851 O 0.00064 0.04081 0.01935
 O852 O -0.02455 0.03601 0.01998
 O853 O 0.02034 0.00053 0.04073
 O854 O 0.01842 -0.02559 0.03566
 O855 O -0.03963 -0.00100 -0.02040
 O856 O -0.03542 0.02507 -0.01747
 O857 O -0.00038 -0.02004 -0.04009
 O858 O 0.02628 -0.01957 -0.03551
 O859 O -0.01927 -0.04040 -0.00150
 O860 O -0.01875 -0.03529 0.02581
 O861 O -0.03970 -0.01961 -0.00205
 O862 O -0.03407 -0.01796 0.02648
 O863 O -0.00041 -0.04046 -0.01950
 O864 O 0.02867 -0.03316 -0.01655
 O865 O -0.01927 -0.00196 -0.04011
 O866 O -0.01433 0.02596 -0.03516
 O867 O 0.04135 0.00135 0.01911
 O868 O 0.03546 -0.02643 0.01583
 O869 O 0.00149 0.01871 0.04085
 O870 O -0.02639 0.01630 0.03442
 O871 O 0.01950 0.04099 0.00130
 O872 O 0.01619 0.03496 -0.02625
 Zr873 Zr 0.01890 0.01880 -0.00829
 O874 O 0.00575 0.00490 -0.02301
 Zr875 Zr -0.00806 0.01827 0.01865
 O876 O -0.02264 0.00494 0.00473
 Zr877 Zr 0.01918 -0.00850 0.01845
 O878 O 0.00550 -0.02330 0.00506
 Zr879 Zr -0.01761 0.00856 -0.01848
 O880 O -0.00453 0.02362 -0.00461
 Zr881 Zr 0.00941 -0.01841 -0.01814
 O882 O 0.02414 -0.00455 -0.00475
 Zr883 Zr -0.01789 -0.01842 0.00842
 O884 O -0.00424 -0.00507 0.02344
 O885 O 0.01513 0.01472 0.01482
 O886 O -0.01395 -0.01478 -0.01474
 C887 C 0.04773 0.01224 0.01147
 C888 C 0.01141 0.04741 0.01177
 C889 C 0.01232 0.01102 0.04727
 C890 C -0.04599 -0.01203 -0.01301
 C891 C -0.01157 -0.01283 -0.04638
 C892 C -0.01154 -0.04678 -0.01224
 H893 H 0.00824 0.00740 -0.03376
 H894 H 0.00800 -0.03408 0.00758
 H895 H 0.02159 0.02135 0.02141
 H896 H -0.03346 0.00752 0.00696
 H897 H -0.03063 0.03480 -0.01406
 H898 H -0.03214 0.03403 0.01181
 H899 H 0.02585 -0.04185 -0.00982
 H900 H 0.04338 -0.02539 0.02393
 H901 H -0.02299 0.02538 -0.04251
 H902 H 0.02434 0.04288 -0.02532
 H903 H -0.00900 -0.04110 0.02546
 H904 H 0.00784 -0.02556 0.03980
 H905 H 0.04076 0.00759 -0.02485
 H906 H 0.02690 -0.00929 -0.04028
 H907 H -0.02447 0.00693 0.04054
 H908 H -0.04155 -0.00971 0.02428
 O909 O 0.04079 0.52001 0.50068
 O910 O 0.03597 0.51785 0.47455
 O911 O 0.00024 0.54053 0.51906
 O912 O -0.02493 0.53559 0.51993
 O913 O 0.02021 0.50031 0.54042
 O914 O 0.01822 0.47413 0.53536
 O915 O -0.03996 0.49865 0.47946
 O916 O -0.03579 0.52468 0.48232
 O917 O -0.00067 0.47963 0.45971
 O918 O 0.02596 0.48016 0.46425
 O919 O -0.01950 0.45927 0.49837
 O920 O -0.01901 0.46435 0.52560
 O921 O -0.03999 0.48007 0.49782
 O922 O -0.03423 0.48176 0.52638
 O923 O -0.00065 0.45920 0.48035
 O924 O 0.02836 0.46649 0.48315
 O925 O -0.01962 0.49765 0.45970
 O926 O -0.01470 0.52556 0.46456
 O927 O 0.04110 0.50119 0.51884
 O928 O 0.03532 0.47340 0.51552
 O929 O 0.00135 0.51848 0.54059
 O930 O -0.02665 0.51592 0.53424
 O931 O 0.01909 0.54075 0.50099
 O932 O 0.01575 0.53458 0.47337
 Zr933 Zr 0.01855 0.51853 0.49143
 O934 O 0.00542 0.50458 0.47675
 Zr935 Zr -0.00835 0.51795 0.51844
 O936 O -0.02292 0.50461 0.50453
 Zr937 Zr 0.01896 0.49125 0.51818
 O938 O 0.00526 0.47642 0.50485
 Zr939 Zr -0.01794 0.50821 0.48131
 O940 O -0.00488 0.52331 0.49516
 Zr941 Zr 0.00912 0.48127 0.48164
 O942 O 0.02386 0.49519 0.49497
 Zr943 Zr -0.01814 0.48126 0.50824
 O944 O -0.00446 0.49463 0.52324
 O945 O 0.01483 0.51446 0.51454
 O946 O -0.01425 0.48487 0.48507
 C947 C 0.04739 0.51215 0.51123
 C948 C 0.01099 0.54715 0.51147
 C949 C 0.01226 0.51085 0.54696
 C950 C -0.04631 0.48765 0.48689
 C951 C -0.01189 0.48680 0.45342
 C952 C -0.01175 0.45287 0.48764
 H953 H 0.00789 0.50706 0.46599
 H954 H 0.00777 0.46565 0.50740
 H955 H 0.02127 0.52112 0.52109
 H956 H -0.03374 0.50719 0.50679
 H957 H -0.03099 0.53446 0.48558
 H958 H -0.03225 0.53388 0.51147
 H959 H 0.02567 0.45799 0.49016
 H960 H 0.04319 0.47443 0.52368
 H961 H -0.02341 0.52499 0.45727
 H962 H 0.02375 0.54263 0.47436
 H963 H -0.00921 0.45862 0.52531
 H964 H 0.00768 0.47421 0.53958
 H965 H 0.04053 0.50745 0.47495
 H966 H 0.02671 0.49050 0.45964
 H967 H -0.02459 0.50665 0.54046
 H968 H -0.04179 0.48994 0.52415
 O969 O 0.45926 -0.00107 0.48022
 O970 O 0.46402 0.02512 0.48240
 O971 O 0.49967 -0.01932 0.45922
 O972 O 0.52487 -0.02013 0.46385
 O973 O 0.48027 -0.04105 0.49946
 O974 O 0.48239 -0.03610 0.52544
 O975 O 0.54019 0.02043 0.50063
 O976 O 0.53569 0.01760 0.47470
 O977 O 0.50101 0.04002 0.52005
 O978 O 0.47439 0.03534 0.51984
 O979 O 0.52025 0.00126 0.53999
 O980 O 0.51979 -0.02612 0.53484
 O981 O 0.54050 0.00191 0.51905
 O982 O 0.53486 -0.02675 0.51739
 O983 O 0.50133 0.01927 0.54032
 O984 O 0.47224 0.01630 0.53339
 O985 O 0.51977 0.04016 0.50191
 O986 O 0.51457 0.03532 0.47413
 O987 O 0.45923 -0.01939 0.49889
 O988 O 0.46542 -0.01616 0.52656
 O989 O 0.49892 -0.04108 0.48114
 O990 O 0.52684 -0.03463 0.48340
 O991 O 0.48077 -0.00124 0.45928
 O992 O 0.48402 0.02644 0.46550
 Zr993 Zr 0.48150 0.00824 0.48145
 O994 O 0.49473 0.02298 0.49524
 Zr995 Zr 0.50850 -0.01879 0.48162
 O996 O 0.52317 -0.00482 0.49479
 Zr997 Zr 0.48150 -0.01873 0.50851
 O998 O 0.49531 -0.00534 0.52318
 Zr999 Zr 0.51807 0.01849 0.49134
 O1000 O 0.50488 0.00459 0.47642
 Zr1001 Zr 0.49130 0.01797 0.51846
 O1002 O 0.47646 0.00457 0.50473
 Zr1003 Zr 0.51868 -0.00862 0.51808
 O1004 O 0.50490 -0.02369 0.50488
 O1005 O 0.48533 -0.01498 0.48536
 O1006 O 0.51464 0.01463 0.51461
 C1007 C 0.45277 -0.01168 0.48812
 C1008 C 0.48886 -0.01168 0.45277
 C1009 C 0.48818 -0.04756 0.48889
 C1010 C 0.54669 0.01295 0.51149
 C1011 C 0.51213 0.04640 0.51281
 C1012 C 0.51256 0.01200 0.54647
 H1013 H 0.49218 0.03378 0.49283
 H1014 H 0.49295 -0.00794 0.53393
 H1015 H 0.47884 -0.02156 0.47878
 H1016 H 0.53397 -0.00703 0.49210
 H1017 H 0.53080 0.01416 0.46506
 H1018 H 0.53240 -0.01184 0.46570
 H1019 H 0.47506 0.00925 0.54180
 H1020 H 0.45744 -0.02423 0.52553
 H1021 H 0.52321 0.04272 0.47465
 H1022 H 0.47589 0.02549 0.45760
 H1023 H 0.51001 -0.02595 0.54058
 H1024 H 0.49297 -0.04025 0.52531
 H1025 H 0.45961 0.02470 0.49282
 H1026 H 0.47355 0.04006 0.50959
 H1027 H 0.52493 -0.04087 0.49266
 H1028 H 0.54219 -0.02455 0.50904
 O1029 O 0.47822 0.45957 -0.00065
 O1030 O 0.48027 0.46442 0.02550
 O1031 O 0.45749 0.49998 -0.01916
 O1032 O 0.46221 0.52523 -0.01982
 O1033 O 0.49804 0.48048 -0.04033
 O1034 O 0.52406 0.48245 -0.03511
 O1035 O 0.49890 0.54043 0.02084
 O1036 O 0.47289 0.53616 0.01770
 O1037 O 0.51801 0.50131 0.04058
 O1038 O 0.51775 0.47466 0.03599
 O1039 O 0.53845 0.52034 0.00205
 O1040 O 0.53343 0.51977 -0.02532
 O1041 O 0.51754 0.54064 0.00254
 O1042 O 0.51609 0.53502 -0.02601
 O1043 O 0.53853 0.50152 0.02011
 O1044 O 0.53151 0.47240 0.01708
 O1045 O 0.49982 0.52009 0.04049
 O1046 O 0.47199 0.51498 0.03541
 O1047 O 0.49711 0.45944 -0.01873
 O1048 O 0.52489 0.46549 -0.01522
 O1049 O 0.47973 0.49921 -0.04058
 O1050 O 0.48187 0.52711 -0.03415
 O1051 O 0.45731 0.48114 -0.00108
 O1052 O 0.46325 0.48441 0.02653
 Zr1053 Zr 0.47947 0.48183 0.00859
 O1054 O 0.49322 0.49505 0.02337
 Zr1055 Zr 0.47998 0.50877 -0.01837
 O1056 O 0.49314 0.52343 -0.00438
 Zr1057 Zr 0.50688 0.48166 -0.01800
 O1058 O 0.52154 0.49545 -0.00456
 Zr1059 Zr 0.48944 0.51839 0.01881
 O1060 O 0.47452 0.50523 0.00486
 Zr1061 Zr 0.51657 0.49153 0.01862
 O1062 O 0.50285 0.47670 0.00518
 Zr1063 Zr 0.51653 0.51883 -0.00795
 O1064 O 0.50335 0.50507 -0.02303
 O1065 O 0.48362 0.48560 -0.01450
 O1066 O 0.51282 0.51486 0.01518
 C1067 C 0.48620 0.45303 -0.01114
 C1068 C 0.45091 0.48920 -0.01159
 C1069 C 0.48755 0.48844 -0.04695
 C1070 C 0.50992 0.54685 0.01350
 C1071 C 0.51069 0.51245 0.04683
 C1072 C 0.54482 0.51267 0.01285
 H1073 H 0.49069 0.49254 0.03411
 H1074 H 0.53234 0.49303 -0.00704
 H1075 H 0.47706 0.47912 -0.02112
 H1076 H 0.49051 0.53424 -0.00663
 H1077 H 0.46314 0.53131 0.01443
 H1078 H 0.46396 0.53264 -0.01144
 H1079 H 0.54020 0.47531 0.01039
 H1080 H 0.52390 0.45751 -0.02326
 H1081 H 0.47241 0.52369 0.04271
 H1082 H 0.45536 0.47625 0.02553
 H1083 H 0.53941 0.51013 -0.02483
 H1084 H 0.52410 0.49305 -0.03918
 H1085 H 0.49071 0.45994 0.02513
 H1086 H 0.50743 0.47389 0.04063
 H1087 H 0.49129 0.52526 -0.04020
 H1088 H 0.50768 0.54236 -0.02393
 O1089 O 0.77112 0.29060 0.49989
 O1090 O 0.76929 0.28572 0.52598
 O1091 O 0.79196 0.25025 0.48126
 O1092 O 0.78734 0.22499 0.48058
 O1093 O 0.75138 0.26965 0.46017
 O1094 O 0.72538 0.26761 0.46534
 O1095 O 0.75073 0.20964 0.52129
 O1096 O 0.77673 0.21402 0.51823
 O1097 O 0.73146 0.24871 0.54101
 O1098 O 0.73169 0.27539 0.53647
 O1099 O 0.71110 0.22963 0.50252
 O1100 O 0.71619 0.23025 0.47506
 O1101 O 0.73203 0.20940 0.50304
 O1102 O 0.73346 0.21487 0.47457
 O1103 O 0.71096 0.24850 0.52053
 O1104 O 0.71794 0.27762 0.51759
 O1105 O 0.74972 0.23000 0.54096
 O1106 O 0.77758 0.23520 0.53587
 O1107 O 0.75219 0.29064 0.48182
 O1108 O 0.72443 0.28445 0.48531
 O1109 O 0.76971 0.25095 0.45990
 O1110 O 0.76757 0.22302 0.46632
 O1111 O 0.79213 0.26909 0.49935
 O1112 O 0.78621 0.26569 0.52702
 Zr1113 Zr 0.77000 0.26831 0.50907
 O1114 O 0.75627 0.25507 0.52385
 Zr1115 Zr 0.76951 0.24137 0.48209
 O1116 O 0.75642 0.22667 0.49609
 Zr1117 Zr 0.74253 0.26839 0.48249
 O1118 O 0.72793 0.25455 0.49591
 Zr1119 Zr 0.76012 0.23173 0.51929
 O1120 O 0.77499 0.24492 0.50533
 Zr1121 Zr 0.73290 0.25852 0.51909
 O1122 O 0.74659 0.27337 0.50567
 Zr1123 Zr 0.73301 0.23119 0.49252
 O1124 O 0.74612 0.24499 0.47744
 O1125 O 0.76580 0.26453 0.48598
 O1126 O 0.73673 0.23519 0.51565
 C1127 C 0.76308 0.29710 0.48941
 C1128 C 0.79853 0.26107 0.48881
 C1129 C 0.76189 0.26173 0.45355
 C1130 C 0.73970 0.20319 0.51397
 C1131 C 0.73880 0.23758 0.54727
 C1132 C 0.70472 0.23730 0.51330
 H1133 H 0.75879 0.25758 0.53460
 H1134 H 0.71712 0.25694 0.49343
 H1135 H 0.77233 0.27104 0.47937
 H1136 H 0.75909 0.21587 0.49386
 H1137 H 0.78642 0.21888 0.51480
 H1138 H 0.78562 0.21754 0.48893
 H1139 H 0.70933 0.27477 0.51077
 H1140 H 0.72541 0.29251 0.47734
 H1141 H 0.77712 0.22656 0.54324
 H1142 H 0.79417 0.27377 0.52599
 H1143 H 0.71011 0.23982 0.47562
 H1144 H 0.72532 0.25699 0.46129
 H1145 H 0.75876 0.29000 0.52583
 H1146 H 0.74197 0.27609 0.54120
 H1147 H 0.75814 0.22487 0.46027
 H1148 H 0.74193 0.20760 0.47664
 O1149 O 0.79144 0.75028 -0.02132
 O1150 O 0.78654 0.72404 -0.01912
 O1151 O 0.75100 0.76878 -0.04198
 O1152 O 0.72577 0.76948 -0.03722
 O1153 O 0.77077 0.79029 -0.00186
 O1154 O 0.76874 0.78525 0.02421
 O1155 O 0.71063 0.72904 -0.00030
 O1156 O 0.71481 0.73197 -0.02624
 O1157 O 0.74972 0.70931 0.01883
 O1158 O 0.77635 0.71378 0.01845
 O1159 O 0.73093 0.74825 0.03890
 O1160 O 0.73151 0.77564 0.03367
 O1161 O 0.71054 0.74755 0.01815
 O1162 O 0.71618 0.77619 0.01643
 O1163 O 0.74972 0.73010 0.03909
 O1164 O 0.77882 0.73291 0.03189
 O1165 O 0.73091 0.70927 0.00073
 O1166 O 0.73588 0.71414 -0.02709
 O1167 O 0.79166 0.76859 -0.00263
 O1168 O 0.78579 0.76532 0.02503
 O1169 O 0.75196 0.79043 -0.02003
 O1170 O 0.72405 0.78413 -0.01768
 O1171 O 0.76980 0.75059 -0.04209
 O1172 O 0.76642 0.72289 -0.03591
 Zr1173 Zr 0.76917 0.74104 -0.01994
 O1174 O 0.75597 0.72635 -0.00607
 Zr1175 Zr 0.74229 0.76818 -0.01955
 O1176 O 0.72765 0.75428 -0.00628
 Zr1177 Zr 0.76949 0.76796 0.00718
 O1178 O 0.75574 0.75463 0.02193
 Zr1179 Zr 0.73264 0.73095 -0.00980
 O1180 O 0.74576 0.74480 -0.02481
 Zr1181 Zr 0.75959 0.73131 0.01715
 O1182 O 0.77439 0.74464 0.00332
 Zr1183 Zr 0.73236 0.75806 0.01698
 O1184 O 0.74609 0.77305 0.00369
 O1185 O 0.76546 0.76426 -0.01594
 O1186 O 0.73625 0.73478 0.01345
 C1187 C 0.79801 0.76090 -0.01348
 C1188 C 0.76174 0.76112 -0.04852
 C1189 C 0.76282 0.79684 -0.01236
 C1190 C 0.70427 0.73651 0.01065
 C1191 C 0.73854 0.70299 0.01162
 C1192 C 0.73861 0.73746 0.04532
 H1193 H 0.75844 0.71553 -0.00850
 H1194 H 0.75822 0.75721 0.03266
 H1195 H 0.77192 0.77083 -0.02256
 H1196 H 0.71684 0.75653 -0.00888
 H1197 H 0.71960 0.73534 -0.03594
 H1198 H 0.71814 0.76134 -0.03518
 H1199 H 0.77606 0.73984 0.04042
 H1200 H 0.79369 0.77348 0.02402
 H1201 H 0.72718 0.70682 -0.02653
 H1202 H 0.77448 0.72383 -0.04388
 H1203 H 0.74128 0.77534 0.03944
 H1204 H 0.75825 0.78962 0.02399
 H1205 H 0.79098 0.72440 -0.00870
 H1206 H 0.77713 0.70909 0.00818
 H1207 H 0.72599 0.79028 -0.00835
 H1208 H 0.70879 0.77403 0.00811
 O1209 O 1.00040 0.20824 0.22966
 O1210 O 0.97423 0.21311 0.23187
 O1211 O 1.01874 0.24862 0.20858
 O1212 O 1.01951 0.27387 0.21318
 O1213 O 1.04053 0.22922 0.24873
 O1214 O 1.03568 0.23131 0.27474
 O1215 O 0.97916 0.28918 0.25022
 O1216 O 0.98198 0.28483 0.22427
 O1217 O 0.95962 0.25019 0.26966
 O1218 O 0.96417 0.22351 0.26939
 O1219 O 0.99864 0.26922 0.28943
 O1220 O 1.02605 0.26863 0.28399
 O1221 O 0.99775 0.28944 0.26858
 O1222 O 1.02634 0.28396 0.26676
 O1223 O 0.98050 0.25040 0.28986
 O1224 O 0.98323 0.22129 0.28289
 O1225 O 0.95944 0.26885 0.25141
 O1226 O 0.96419 0.26366 0.22364
 O1227 O 1.01881 0.20820 0.24824
 O1228 O 1.01569 0.21436 0.27589
 O1229 O 1.04053 0.24791 0.23045
 O1230 O 1.03415 0.27581 0.23260
 O1231 O 1.00061 0.22975 0.20869
 O1232 O 0.97294 0.23311 0.21499
 Zr1233 Zr 0.99118 0.23053 0.23089
 O1234 O 0.97654 0.24379 0.24474
 Zr1235 Zr 1.01826 0.25748 0.23096
 O1236 O 1.00441 0.27218 0.24419
 Zr1237 Zr 1.01824 0.23047 0.25786
 O1238 O 1.00496 0.24430 0.27258
 Zr1239 Zr 0.98107 0.26712 0.24082
 O1240 O 0.99486 0.25391 0.22583
 Zr1241 Zr 0.98162 0.24036 0.26796
 O1242 O 0.99491 0.22550 0.25416
 Zr1243 Zr 1.00832 0.26766 0.26746
 O1244 O 1.02326 0.25386 0.25419
 O1245 O 1.01442 0.23431 0.23472
 O1246 O 0.98503 0.26368 0.26408
 C1247 C 1.01103 0.20174 0.23751
 C1248 C 1.01107 0.23781 0.20216
 C1249 C 1.04702 0.23716 0.23817
 C1250 C 0.98665 0.29562 0.26111
 C1251 C 0.95324 0.26128 0.26238
 C1252 C 0.98790 0.26157 0.29597
 H1253 H 0.96572 0.24128 0.24237
 H1254 H 1.00761 0.24192 0.28332
 H1255 H 1.02096 0.22780 0.22813
 H1256 H 1.00662 0.28299 0.24150
 H1257 H 0.98520 0.27997 0.21455
 H1258 H 1.01118 0.28134 0.21503
 H1259 H 0.99037 0.22406 0.29126
 H1260 H 1.02378 0.20640 0.27487
 H1261 H 0.95686 0.27236 0.22415
 H1262 H 0.97386 0.22501 0.20705
 H1263 H 1.02570 0.25897 0.28992
 H1264 H 1.03989 0.24187 0.27457
 H1265 H 0.97457 0.20880 0.24234
 H1266 H 0.95935 0.22276 0.25918
 H1267 H 1.04030 0.27401 0.24196
 H1268 H 1.02414 0.29125 0.25836
 O1269 O 0.70836 1.01999 0.75001
 O1270 O 0.71341 1.01789 0.77613
 O1271 O 0.74849 1.04116 0.73138
 O1272 O 0.77376 1.03665 0.73041
 O1273 O 0.72909 1.00058 0.71014
 O1274 O 0.73141 0.97448 0.71520
 O1275 O 0.78955 0.99993 0.77086
 O1276 O 0.78500 1.02595 0.76791
 O1277 O 0.75073 0.98035 0.79076
 O1278 O 0.72403 0.98047 0.78639
 O1279 O 0.76955 0.96024 0.75196
 O1280 O 0.76881 0.96544 0.72466
 O1281 O 0.78973 0.98130 0.75253
 O1282 O 0.78398 0.98291 0.72403
 O1283 O 0.75086 0.95991 0.77013
 O1284 O 0.72170 0.96678 0.76750
 O1285 O 0.76935 0.99873 0.79066
 O1286 O 0.76399 1.02656 0.78576
 O1287 O 0.70829 1.00116 0.73184
 O1288 O 0.71455 0.97345 0.73523
 O1289 O 0.74768 1.01905 0.70986
 O1290 O 0.77569 1.01699 0.71606
 O1291 O 0.72974 1.04109 0.74955
 O1292 O 0.73331 1.03505 0.77713
 Zr1293 Zr 0.73069 1.01890 0.75912
 O1294 O 0.74413 1.00520 0.77374
 Zr1295 Zr 0.75746 1.01874 0.73197
 O1296 O 0.77232 1.00565 0.74580
 Zr1297 Zr 0.73057 0.99159 0.73240
 O1298 O 0.74456 0.97700 0.74567
 Zr1299 Zr 0.76741 1.00920 0.76905
 O1300 O 0.75403 1.02406 0.75526
 Zr1301 Zr 0.74075 0.98183 0.76890
 O1302 O 0.72574 0.99548 0.75563
 Zr1303 Zr 0.76787 0.98222 0.74215
 O1304 O 0.75391 0.99535 0.72722
 O1305 O 0.73435 1.01486 0.73599
 O1306 O 0.76404 0.98580 0.76533
 C1307 C 0.70183 1.01200 0.73950
 C1308 C 0.73769 1.04761 0.73902
 C1309 C 0.73687 1.01121 0.70355
 C1310 C 0.79599 0.98896 0.76346
 C1311 C 0.76186 0.98773 0.79698
 C1312 C 0.76197 0.95374 0.76274
 H1313 H 0.74168 1.00766 0.78452
 H1314 H 0.74219 0.96620 0.74315
 H1315 H 0.72777 1.02141 0.72946
 H1316 H 0.78309 1.00838 0.74351
 H1317 H 0.78005 1.03564 0.76463
 H1318 H 0.78127 1.03495 0.73872
 H1319 H 0.72453 0.95822 0.76062
 H1320 H 0.70653 0.97437 0.72722
 H1321 H 0.77273 1.02615 0.79302
 H1322 H 0.72512 1.04292 0.77621
 H1323 H 0.75916 0.95947 0.72509
 H1324 H 0.74194 0.97468 0.71095
 H1325 H 0.70907 1.00739 0.77579
 H1326 H 0.72328 0.99076 0.79113
 H1327 H 0.77383 1.00759 0.70997
 H1328 H 0.79134 0.99129 0.72619
 O1329 O 0.70878 0.51997 0.24900
 O1330 O 0.71363 0.51804 0.27509
 O1331 O 0.74910 0.54101 0.23053
 O1332 O 0.77435 0.53642 0.22972
 O1333 O 0.72975 0.50042 0.20926
 O1334 O 0.73200 0.47432 0.21444
 O1335 O 0.78977 0.49981 0.27043
 O1336 O 0.78533 0.52578 0.26741
 O1337 O 0.75075 0.48038 0.29011
 O1338 O 0.72406 0.48057 0.28554
 O1339 O 0.76986 0.46013 0.25160
 O1340 O 0.76923 0.46519 0.22421
 O1341 O 0.79005 0.48116 0.25212
 O1342 O 0.78448 0.48257 0.22363
 O1343 O 0.75100 0.45990 0.26960
 O1344 O 0.72188 0.46677 0.26670
 O1345 O 0.76942 0.49870 0.29009
 O1346 O 0.76414 0.52656 0.28503
 O1347 O 0.70877 0.50108 0.23088
 O1348 O 0.71495 0.47338 0.23428
 O1349 O 0.74839 0.51883 0.20907
 O1350 O 0.77633 0.51670 0.21549
 O1351 O 0.73024 0.54106 0.24858
 O1352 O 0.73359 0.53506 0.27621
 Zr1353 Zr 0.73105 0.51889 0.25822
 O1354 O 0.74434 0.50519 0.27298
 Zr1355 Zr 0.75799 0.51856 0.23126
 O1356 O 0.77272 0.50548 0.24523
 Zr1357 Zr 0.73104 0.49149 0.23157
 O1358 O 0.74489 0.47690 0.24500
 Zr1359 Zr 0.76765 0.50912 0.26843
 O1360 O 0.75443 0.52397 0.25450
 Zr1361 Zr 0.74093 0.48182 0.26818
 O1362 O 0.72605 0.49547 0.25476
 Zr1363 Zr 0.76824 0.48205 0.24162
 O1364 O 0.75442 0.49517 0.22655
 O1365 O 0.73484 0.51477 0.23512
 O1366 O 0.76425 0.48572 0.26476
 C1367 C 0.70229 0.51194 0.23849
 C1368 C 0.73827 0.54752 0.23810
 C1369 C 0.73763 0.51100 0.20269
 C1370 C 0.79625 0.48882 0.26307
 C1371 C 0.76186 0.48774 0.29638
 C1372 C 0.76220 0.45369 0.26237
 H1373 H 0.74182 0.50769 0.28373
 H1374 H 0.74252 0.46609 0.24250
 H1375 H 0.72832 0.52131 0.22853
 H1376 H 0.78351 0.50819 0.24300
 H1377 H 0.78046 0.53547 0.26401
 H1378 H 0.78176 0.53477 0.23812
 H1379 H 0.72473 0.45821 0.25982
 H1380 H 0.70701 0.47431 0.22619
 H1381 H 0.77279 0.52613 0.29240
 H1382 H 0.72545 0.54298 0.27521
 H1383 H 0.75959 0.45921 0.22465
 H1384 H 0.74255 0.47450 0.21025
 H1385 H 0.70932 0.50752 0.27485
 H1386 H 0.72335 0.49085 0.29029
 H1387 H 0.77446 0.50731 0.20938
 H1388 H 0.79173 0.49107 0.22569
 O1389 O 0.47977 0.29103 0.75203
 O1390 O 0.48165 0.28613 0.72595
 O1391 O 0.45886 0.25063 0.77062
 O1392 O 0.46351 0.22538 0.77133
 O1393 O 0.49944 0.27011 0.79177
 O1394 O 0.52545 0.26799 0.78663
 O1395 O 0.50005 0.21007 0.73063
 O1396 O 0.47405 0.21447 0.73375
 O1397 O 0.51935 0.24913 0.71091
 O1398 O 0.51920 0.27579 0.71548
 O1399 O 0.53974 0.23006 0.74942
 O1400 O 0.53469 0.23063 0.77683
 O1401 O 0.51877 0.20983 0.74887
 O1402 O 0.51732 0.21536 0.77741
 O1403 O 0.53988 0.24891 0.73141
 O1404 O 0.53293 0.27804 0.73437
 O1405 O 0.50106 0.23042 0.71099
 O1406 O 0.47325 0.23561 0.71605
 O1407 O 0.49870 0.29111 0.77009
 O1408 O 0.52644 0.28488 0.76670
 O1409 O 0.48110 0.25141 0.79204
 O1410 O 0.48319 0.22348 0.78564
 O1411 O 0.45872 0.26949 0.75255
 O1412 O 0.46465 0.26614 0.72491
 Zr1413 Zr 0.48087 0.26874 0.74286
 O1414 O 0.49458 0.25548 0.72809
 Zr1415 Zr 0.48132 0.24180 0.76985
 O1416 O 0.49441 0.22710 0.75585
 Zr1417 Zr 0.50831 0.26883 0.76946
 O1418 O 0.52291 0.25498 0.75603
 Zr1419 Zr 0.49070 0.23216 0.73266
 O1420 O 0.47585 0.24536 0.74661
 Zr1421 Zr 0.51795 0.25893 0.73286
 O1422 O 0.50428 0.27379 0.74628
 Zr1423 Zr 0.51782 0.23162 0.75942
 O1424 O 0.50471 0.24543 0.77450
 O1425 O 0.48504 0.26497 0.76596
 O1426 O 0.51410 0.23561 0.73628
 C1427 C 0.48784 0.29756 0.76247
 C1428 C 0.45230 0.26143 0.76305
 C1429 C 0.48892 0.26220 0.79839
 C1430 C 0.51108 0.20362 0.73794
 C1431 C 0.51198 0.23801 0.70466
 C1432 C 0.54614 0.23774 0.73865
 H1433 H 0.49206 0.25800 0.71735
 H1434 H 0.53372 0.25737 0.75852
 H1435 H 0.47851 0.27149 0.77256
 H1436 H 0.49173 0.21630 0.75809
 H1437 H 0.46435 0.21936 0.73709
 H1438 H 0.46521 0.21797 0.76294
 H1439 H 0.54154 0.27517 0.74117
 H1440 H 0.52547 0.29291 0.77470
 H1441 H 0.47366 0.22692 0.70873
 H1442 H 0.45673 0.27426 0.72593
 H1443 H 0.54073 0.24024 0.77632
 H1444 H 0.52548 0.25737 0.79065
 H1445 H 0.49215 0.29046 0.72617
 H1446 H 0.50890 0.27655 0.71079
 H1447 H 0.49265 0.22530 0.79166
 H1448 H 0.50894 0.20800 0.77526
 O1449 O 0.29082 0.75149 0.47868
 O1450 O 0.28605 0.72528 0.48081
 O1451 O 0.25031 0.76976 0.45784
 O1452 O 0.22511 0.77037 0.46251
 O1453 O 0.26982 0.79148 0.49798
 O1454 O 0.26787 0.78654 0.52397
 O1455 O 0.21003 0.72991 0.49953
 O1456 O 0.21432 0.73273 0.47357
 O1457 O 0.24930 0.71044 0.51878
 O1458 O 0.27589 0.71511 0.51843
 O1459 O 0.23012 0.74924 0.53871
 O1460 O 0.23062 0.77668 0.53344
 O1461 O 0.20980 0.74850 0.51790
 O1462 O 0.21532 0.77712 0.51616
 O1463 O 0.24907 0.73125 0.53900
 O1464 O 0.27815 0.73422 0.53190
 O1465 O 0.23046 0.71022 0.50070
 O1466 O 0.23547 0.71503 0.47287
 O1467 O 0.29091 0.76985 0.49733
 O1468 O 0.28490 0.76664 0.52499
 O1469 O 0.25105 0.79147 0.47976
 O1470 O 0.22318 0.78496 0.48206
 O1471 O 0.26922 0.75168 0.45782
 O1472 O 0.26594 0.72397 0.46405
 Zr1473 Zr 0.26858 0.74217 0.47999
 O1474 O 0.25544 0.72744 0.49387
 Zr1475 Zr 0.24155 0.76915 0.48025
 O1476 O 0.22696 0.75519 0.49352
 Zr1477 Zr 0.26870 0.76917 0.50704
 O1478 O 0.25497 0.75580 0.52179
 Zr1479 Zr 0.23208 0.73188 0.49009
 O1480 O 0.24516 0.74577 0.47507
 Zr1481 Zr 0.25899 0.73249 0.51708
 O1482 O 0.27373 0.74587 0.50324
 Zr1483 Zr 0.23158 0.75906 0.51678
 O1484 O 0.24527 0.77410 0.50348
 O1485 O 0.26474 0.76539 0.48391
 O1486 O 0.23563 0.73580 0.51333
 C1487 C 0.29734 0.76212 0.48655
 C1488 C 0.26111 0.76215 0.45135
 C1489 C 0.26182 0.79798 0.48747
 C1490 C 0.20359 0.73740 0.51041
 C1491 C 0.23816 0.70402 0.51160
 C1492 C 0.23786 0.73853 0.54517
 H1493 H 0.25798 0.71664 0.49147
 H1494 H 0.25741 0.75842 0.53252
 H1495 H 0.27120 0.77198 0.47731
 H1496 H 0.21614 0.75738 0.49087
 H1497 H 0.21913 0.73616 0.46389
 H1498 H 0.21752 0.76217 0.46450
 H1499 H 0.27534 0.74122 0.54036
 H1500 H 0.29284 0.77475 0.52394
 H1501 H 0.22683 0.70763 0.47345
 H1502 H 0.27398 0.72494 0.45608
 H1503 H 0.24032 0.77636 0.53930
 H1504 H 0.25728 0.79066 0.52390
 H1505 H 0.29052 0.72568 0.49121
 H1506 H 0.27674 0.71044 0.50816
 H1507 H 0.22509 0.79119 0.49135
 H1508 H 0.20799 0.77493 0.50779
 O1509 O 0.26980 0.29048 0.99887
 O1510 O 0.26781 0.28565 1.02494
 O1511 O 0.29074 0.25015 0.98036
 O1512 O 0.28612 0.22490 0.97960
 O1513 O 0.25016 0.26951 0.95910
 O1514 O 0.22409 0.26742 0.96428
 O1515 O 0.24943 0.20952 1.02020
 O1516 O 0.27545 0.21393 1.01716
 O1517 O 0.23010 0.24854 1.03992
 O1518 O 0.23026 0.27519 1.03539
 O1519 O 0.20982 0.22948 1.00129
 O1520 O 0.21502 0.23012 0.97386
 O1521 O 0.23077 0.20926 1.00190
 O1522 O 0.23229 0.21476 0.97342
 O1523 O 0.20959 0.24831 1.01934
 O1524 O 0.21656 0.27744 1.01649
 O1525 O 0.24840 0.22987 1.03988
 O1526 O 0.27620 0.23509 1.03489
 O1527 O 0.25096 0.29054 0.98071
 O1528 O 0.22325 0.28443 0.98416
 O1529 O 0.26853 0.25085 0.95889
 O1530 O 0.26645 0.22293 0.96529
 O1531 O 0.29082 0.26900 0.99844
 O1532 O 0.28479 0.26566 1.02608
 Zr1533 Zr 0.26865 0.26821 1.00807
 O1534 O 0.25490 0.25494 1.02279
 Zr1535 Zr 0.26829 0.24127 0.98108
 O1536 O 0.25517 0.22656 0.99502
 Zr1537 Zr 0.24128 0.26828 0.98140
 O1538 O 0.22665 0.25442 0.99479
 Zr1539 Zr 0.25880 0.23161 1.01823
 O1540 O 0.27369 0.24483 1.00433
 Zr1541 Zr 0.23154 0.25836 1.01798
 O1542 O 0.24524 0.27324 1.00460
 Zr1543 Zr 0.23176 0.23107 0.99139
 O1544 O 0.24491 0.24489 0.97636
 O1545 O 0.26454 0.26443 0.98496
 O1546 O 0.23541 0.23504 1.01454
 C1547 C 0.26183 0.29699 0.98834
 C1548 C 0.29727 0.26095 0.98794
 C1549 C 0.26069 0.26160 0.95251
 C1550 C 0.23842 0.20306 1.01285
 C1551 C 0.23748 0.23745 1.04619
 C1552 C 0.20337 0.23713 1.01205
 H1553 H 0.25740 0.25746 1.03354
 H1554 H 0.21585 0.25680 0.99227
 H1555 H 0.27109 0.27094 0.97836
 H1556 H 0.25786 0.21576 0.99279
 H1557 H 0.28517 0.21883 1.01388
 H1558 H 0.28442 0.21748 0.98799
 H1559 H 0.20805 0.27463 1.00954
 H1560 H 0.22417 0.29236 0.97607
 H1561 H 0.27580 0.22638 1.04218
 H1562 H 0.29273 0.27377 1.02507
 H1563 H 0.20890 0.23967 0.97443
 H1564 H 0.22418 0.25685 0.96011
 H1565 H 0.25728 0.28992 1.02473
 H1566 H 0.24055 0.27594 1.04011
 H1567 H 0.25700 0.22473 0.95926
 H1568 H 0.24074 0.20748 0.97553
 C1569 C 0.29421 0.35417 0.79521
 C1570 C 0.28954 0.36639 0.79068
 C1571 C 0.28420 0.38118 0.78562
 C1572 C 0.27662 0.38272 0.77156
 C1573 C 0.27167 0.39720 0.76665
 C1574 C 0.27429 0.41017 0.77579
 C1575 C 0.28181 0.40859 0.78987
 C1576 C 0.28675 0.39414 0.79477
 C1577 C 0.26951 0.42515 0.77073
 C1578 C 0.26579 0.43789 0.76681
 H1579 H 0.27460 0.37277 0.76439
 H1580 H 0.26588 0.39829 0.75573
 H1581 H 0.28391 0.41854 0.79702
 H1582 H 0.29261 0.39308 0.80565
 C1583 C 0.29662 -0.14450 0.29539
 C1584 C 0.29207 -0.13233 0.29062
 C1585 C 0.28691 -0.11764 0.28509
 C1586 C 0.29747 -0.10564 0.28319
 C1587 C 0.29248 -0.09125 0.27815
 C1588 C 0.27691 -0.08877 0.27497
 C1589 C 0.26635 -0.10078 0.27681
 C1590 C 0.27134 -0.11519 0.28186
 C1591 C 0.27179 -0.07384 0.27010
 C1592 C 0.26768 -0.06121 0.26621
 H1593 H 0.30953 -0.10740 0.28570
 H1594 H 0.30074 -0.08204 0.27682
 H1595 H 0.25428 -0.09897 0.27442
 H1596 H 0.26307 -0.12437 0.28332
 C1597 C 0.79536 0.85504 0.79572
 C1598 C 0.79064 0.86723 0.79118
 C1599 C 0.78521 0.88196 0.78603
 C1600 C 0.78433 0.89423 0.79636
 C1601 C 0.77935 0.90864 0.79140
 C1602 C 0.77521 0.91088 0.77607
 C1603 C 0.77602 0.89860 0.76573
 C1604 C 0.78102 0.88416 0.77071
 C1605 C 0.77035 0.92583 0.77101
 C1606 C 0.76644 0.93850 0.76707
 H1607 H 0.78758 0.89267 0.80823
 H1608 H 0.77879 0.91807 0.79948
 H1609 H 0.77288 0.90021 0.75385
 H1610 H 0.78168 0.87476 0.76262
 C1611 C 0.45563 0.89771 0.29394
 C1612 C 0.46035 0.88571 0.28892
 C1613 C 0.46559 0.87113 0.28321
 C1614 C 0.45499 0.85929 0.28072
 C1615 C 0.46002 0.84491 0.27572
 C1616 C 0.47568 0.84228 0.27319
 C1617 C 0.48629 0.85416 0.27552
 C1618 C 0.48125 0.86858 0.28053
 C1619 C 0.48079 0.82724 0.26868
 C1620 C 0.48469 0.81443 0.26517
 H1621 H 0.44286 0.86113 0.28279
 H1622 H 0.45173 0.83579 0.27400
 H1623 H 0.49843 0.85224 0.27364
 H1624 H 0.48954 0.87765 0.28246
 C1625 C -0.04648 0.89578 0.79615
 C1626 C -0.04129 0.88412 0.79080
 C1627 C -0.03528 0.86998 0.78475
 C1628 C -0.02424 0.86175 0.79303
 C1629 C -0.01897 0.84759 0.78761
 C1630 C -0.02472 0.84160 0.77388
 C1631 C -0.03561 0.84993 0.76549
 C1632 C -0.04088 0.86409 0.77091
 C1633 C -0.02001 0.82659 0.76885
 C1634 C -0.01632 0.81383 0.76497
 H1635 H -0.01989 0.86616 0.80378
 H1636 H -0.01062 0.84121 0.79425
 H1637 H -0.04019 0.84536 0.75490
 H1638 H -0.04946 0.87033 0.76445
 C1639 C -0.04433 -0.14520 -0.04673
 C1640 C -0.03958 -0.13309 -0.04199
 C1641 C -0.03411 -0.11846 -0.03657
 C1642 C -0.03276 -0.11565 -0.02084
 C1643 C -0.02785 -0.10126 -0.01563
 C1644 C -0.02428 -0.08964 -0.02613
 C1645 C -0.02556 -0.09249 -0.04185
 C1646 C -0.03046 -0.10686 -0.04705
 C1647 C -0.01961 -0.07469 -0.02085
 C1648 C -0.01584 -0.06202 -0.01673
 H1649 H -0.03560 -0.12452 -0.01263
 H1650 H -0.02695 -0.09917 -0.00344
 H1651 H -0.02287 -0.08357 -0.05007
 H1652 H -0.03150 -0.10889 -0.05924
 C1653 C -0.04518 0.35472 0.45319
 C1654 C -0.04024 0.36671 0.45804
 C1655 C -0.03452 0.38119 0.46359
 C1656 C -0.03624 0.38517 0.47903
 C1657 C -0.03119 0.39950 0.48425
 C1658 C -0.02440 0.40989 0.47406
 C1659 C -0.02256 0.40585 0.45866
 C1660 C -0.02761 0.39153 0.45344
 C1661 C -0.01974 0.42488 0.47922
 C1662 C -0.01600 0.43759 0.48325
 H1663 H -0.04162 0.37728 0.48697
 H1664 H -0.03271 0.40253 0.49618
 H1665 H -0.01737 0.41382 0.45067
 H1666 H -0.02626 0.38860 0.44147
 C1667 C 0.45604 -0.14646 0.45568
 C1668 C 0.46091 -0.13454 0.46074
 C1669 C 0.46646 -0.12009 0.46654
 C1670 C 0.45888 -0.11286 0.47870
 C1671 C 0.46378 -0.09844 0.48380
 C1672 C 0.47628 -0.09119 0.47676
 C1673 C 0.48398 -0.09851 0.46473
 C1674 C 0.47908 -0.11293 0.45962
 C1675 C 0.48077 -0.07598 0.48140
 C1676 C 0.48429 -0.06308 0.48499
 H1677 H 0.44906 -0.11827 0.48407
 H1678 H 0.45769 -0.09286 0.49306
 H1679 H 0.49361 -0.09297 0.45915
 H1680 H 0.48498 -0.11838 0.45017
 C1681 C 0.45446 0.35377 -0.04398
 C1682 C 0.45897 0.36591 -0.03906
 C1683 C 0.46399 0.38060 -0.03340
 C1684 C 0.45312 0.39193 -0.02993
 C1685 C 0.45791 0.40641 -0.02493
 C1686 C 0.47359 0.40963 -0.02336
 C1687 C 0.48447 0.39827 -0.02671
 C1688 C 0.47968 0.38377 -0.03172
 C1689 C 0.47843 0.42475 -0.01877
 C1690 C 0.48217 0.43758 -0.01516
 H1691 H 0.44096 0.38963 -0.03124
 H1692 H 0.44940 0.41513 -0.02243
 H1693 H 0.49663 0.40065 -0.02558
 H1694 H 0.48818 0.37510 -0.03441
 C1695 C 0.79589 0.39516 0.45483
 C1696 C 0.79082 0.38342 0.46012
 C1697 C 0.78507 0.36918 0.46617
 C1698 C 0.77269 0.36179 0.45904
 C1699 C 0.76768 0.34750 0.46437
 C1700 C 0.77502 0.34055 0.47684
 C1701 C 0.78726 0.34805 0.48410
 C1702 C 0.79227 0.36234 0.47877
 C1703 C 0.77051 0.32542 0.48167
 C1704 C 0.76698 0.31258 0.48540
 H1705 H 0.76710 0.36694 0.44924
 H1706 H 0.75827 0.34176 0.45862
 H1707 H 0.79308 0.34274 0.49369
 H1708 H 0.80190 0.36793 0.48431
 C1709 C 0.79700 0.89487 -0.04594
 C1710 C 0.79183 0.88304 -0.04097
 C1711 C 0.78581 0.86867 -0.03549
 C1712 C 0.78008 0.85791 -0.04596
 C1713 C 0.77482 0.84365 -0.04084
 C1714 C 0.77525 0.84007 -0.02523
 C1715 C 0.78082 0.85088 -0.01472
 C1716 C 0.78609 0.86517 -0.01985
 C1717 C 0.77054 0.82506 -0.02019
 C1718 C 0.76685 0.81228 -0.01639
 H1719 H 0.77986 0.86048 -0.05808
 H1720 H 0.77061 0.83535 -0.04907
 H1721 H 0.78126 0.84820 -0.00263
 H1722 H 0.79054 0.87339 -0.01166
 C1723 C 0.79479 0.29492 0.35536
 C1724 C 0.78966 0.28983 0.36711
 C1725 C 0.78382 0.28403 0.38138
 C1726 C 0.79064 0.27118 0.38823
 C1727 C 0.78558 0.26611 0.40255
 C1728 C 0.77368 0.27385 0.41007
 C1729 C 0.76671 0.28656 0.40312
 C1730 C 0.77176 0.29163 0.38880
 C1731 C 0.76916 0.26925 0.42522
 C1732 C 0.76567 0.26566 0.43808
 H1733 H 0.80002 0.26526 0.38262
 H1734 H 0.79112 0.25632 0.40785
 H1735 H 0.75756 0.29269 0.40887
 H1736 H 0.76645 0.30162 0.38364
 C1737 C 0.79383 0.79425 -0.14705
 C1738 C 0.78886 0.78911 -0.13524
 C1739 C 0.78321 0.78328 -0.12091
 C1740 C 0.77044 0.79010 -0.11393
 C1741 C 0.76552 0.78505 -0.09956
 C1742 C 0.77334 0.77314 -0.09210
 C1743 C 0.78598 0.76617 -0.09919
 C1744 C 0.79090 0.77122 -0.11356
 C1745 C 0.76889 0.76859 -0.07691
 C1746 C 0.76545 0.76503 -0.06403
 H1747 H 0.76446 0.79948 -0.11948
 H1748 H 0.75579 0.79058 -0.09415
 H1749 H 0.79216 0.75701 -0.09350
 H1750 H 0.80083 0.76592 -0.11882
 C1751 C 0.29306 0.45645 0.89692
 C1752 C 0.28812 0.46143 0.88504
 C1753 C 0.28251 0.46711 0.87063
 C1754 C 0.29023 0.47907 0.86317
 C1755 C 0.28529 0.48401 0.84876
 C1756 C 0.27262 0.47701 0.84177
 C1757 C 0.26478 0.46518 0.84932
 C1758 C 0.26971 0.46024 0.86373
 C1759 C 0.26812 0.48146 0.82657
 C1760 C 0.26462 0.48494 0.81369
 H1761 H 0.30018 0.48441 0.86838
 H1762 H 0.29149 0.49311 0.84299
 H1763 H 0.25502 0.45963 0.84397
 H1764 H 0.26371 0.45093 0.86937
 C1765 C 0.29691 -0.04512 0.39374
 C1766 C 0.29218 -0.04026 0.38172
 C1767 C 0.28673 -0.03465 0.36723
 C1768 C 0.29708 -0.02822 0.35677
 C1769 C 0.29190 -0.02322 0.34247
 C1770 C 0.27636 -0.02464 0.33857
 C1771 C 0.26599 -0.03097 0.34907
 C1772 C 0.27117 -0.03597 0.36337
 C1773 C 0.27118 -0.01994 0.32366
 C1774 C 0.26706 -0.01615 0.31105
 H1775 H 0.30914 -0.02718 0.35962
 H1776 H 0.30003 -0.01838 0.33442
 H1777 H 0.25396 -0.03216 0.34615
 H1778 H 0.26308 -0.04097 0.37136
 C1779 C -0.04686 -0.04759 -0.14349
 C1780 C -0.04175 -0.04286 -0.13157
 C1781 C -0.03582 -0.03743 -0.11717
 C1782 C -0.03149 -0.04798 -0.10588
 C1783 C -0.02615 -0.04278 -0.09171
 C1784 C -0.02509 -0.02699 -0.08877
 C1785 C -0.02933 -0.01643 -0.10010
 C1786 C -0.03468 -0.02164 -0.11428
 C1787 C -0.02006 -0.02172 -0.07399
 C1788 C -0.01605 -0.01752 -0.06147
 H1789 H -0.03237 -0.06021 -0.10797
 H1790 H -0.02296 -0.05105 -0.08301
 H1791 H -0.02861 -0.00420 -0.09793
 H1792 H -0.03803 -0.01337 -0.12292
 C1793 C -0.04697 0.45120 0.35660
 C1794 C -0.04177 0.45606 0.36844
 C1795 C -0.03580 0.46170 0.38273
 C1796 C -0.03656 0.47740 0.38619
 C1797 C -0.03126 0.48278 0.40032
 C1798 C -0.02519 0.47247 0.41104
 C1799 C -0.02432 0.45680 0.40752
 C1800 C -0.02961 0.45143 0.39340
 C1801 C -0.02027 0.47785 0.42582
 C1802 C -0.01633 0.48210 0.43834
 H1803 H -0.04137 0.48544 0.37803
 H1804 H -0.03204 0.49491 0.40294
 H1805 H -0.01970 0.44872 0.41575
 H1806 H -0.02902 0.43926 0.39087
 C1807 C 0.45629 -0.04307 0.35383
 C1808 C 0.46133 -0.03827 0.36575
 C1809 C 0.46707 -0.03281 0.38019
 C1810 C 0.47902 -0.04065 0.38756
 C1811 C 0.48403 -0.03587 0.40199
 C1812 C 0.47712 -0.02323 0.40912
 C1813 C 0.46532 -0.01526 0.40167
 C1814 C 0.46030 -0.02005 0.38724
 C1815 C 0.48164 -0.01889 0.42435
 C1816 C 0.48512 -0.01548 0.43725
 H1817 H 0.48428 -0.05059 0.38225
 H1818 H 0.49311 -0.04216 0.40769
 H1819 H 0.45984 -0.00552 0.40712
 H1820 H 0.45100 -0.01395 0.38168
 C1821 C 0.45585 0.45643 -0.14602
 C1822 C 0.46073 0.46132 -0.13407
 C1823 C 0.46628 0.46691 -0.11959
 C1824 C 0.47876 0.45972 -0.11246
 C1825 C 0.48362 0.46461 -0.09800
 C1826 C 0.47602 0.47670 -0.09062
 C1827 C 0.46367 0.48402 -0.09785
 C1828 C 0.45880 0.47913 -0.11230
 C1829 C 0.48043 0.48113 -0.07538
 C1830 C 0.48384 0.48460 -0.06247
 H1831 H 0.48457 0.45021 -0.11796
 H1832 H 0.49314 0.45882 -0.09249
 H1833 H 0.45766 0.49332 -0.09222
 H1834 H 0.44909 0.48472 -0.11768
 C1835 C 0.45699 0.79504 0.39609
 C1836 C 0.46195 0.79022 0.38415
 C1837 C 0.46754 0.78469 0.36968
 C1838 C 0.48113 0.79065 0.36347
 C1839 C 0.48610 0.78585 0.34903
 C1840 C 0.47751 0.77507 0.34074
 C1841 C 0.46403 0.76898 0.34703
 C1842 C 0.45906 0.77378 0.36147
 C1843 C 0.48214 0.77074 0.32555
 C1844 C 0.48572 0.76731 0.31268
 H1845 H 0.48774 0.79914 0.36969
 H1846 H 0.49650 0.79069 0.34423
 H1847 H 0.45725 0.76070 0.34069
 H1848 H 0.44850 0.76915 0.36613
 C1849 C -0.04372 0.79474 0.89527
 C1850 C -0.03876 0.78981 0.88336
 C1851 C -0.03315 0.78419 0.86893
 C1852 C -0.01971 0.79034 0.86257
 C1853 C -0.01475 0.78549 0.84814
 C1854 C -0.02319 0.77448 0.84001
 C1855 C -0.03651 0.76820 0.84646
 C1856 C -0.04148 0.77304 0.86088
 C1857 C -0.01861 0.77012 0.82481
 C1858 C -0.01507 0.76669 0.81192
 H1859 H -0.01323 0.79902 0.86866
 H1860 H -0.00448 0.79049 0.84323
 H1861 H -0.04318 0.75974 0.84024
 H1862 H -0.05192 0.76828 0.86565
 C1863 C 0.35457 0.79529 0.29454
 C1864 C 0.36661 0.79049 0.28972
 C1865 C 0.38124 0.78522 0.28418
 C1866 C 0.39288 0.79588 0.28114
 C1867 C 0.40730 0.79087 0.27623
 C1868 C 0.41016 0.77516 0.27433
 C1869 C 0.39848 0.76447 0.27726
 C1870 C 0.38404 0.76949 0.28218
 C1871 C 0.42520 0.77012 0.26977
 C1872 C 0.43801 0.76634 0.26617
 H1873 H 0.39086 0.80806 0.28269
 H1874 H 0.41625 0.79923 0.27404
 H1875 H 0.40059 0.75228 0.27587
 H1876 H 0.37512 0.76114 0.28455
 C1877 C -0.14662 0.79483 0.79342
 C1878 C -0.13475 0.78982 0.78840
 C1879 C -0.12034 0.78411 0.78271
 C1880 C -0.11329 0.77151 0.78977
 C1881 C -0.09886 0.76652 0.78483
 C1882 C -0.09141 0.77412 0.77281
 C1883 C -0.09856 0.78659 0.76561
 C1884 C -0.11299 0.79158 0.77055
 C1885 C -0.07618 0.76961 0.76832
 C1886 C -0.06326 0.76613 0.76478
 H1887 H -0.11884 0.76570 0.79923
 H1888 H -0.09340 0.75691 0.79053
 H1889 H -0.09287 0.79260 0.75636
 H1890 H -0.11830 0.80139 0.76506
 C1891 C 0.89660 0.29461 0.45482
 C1892 C 0.88485 0.28944 0.45999
 C1893 C 0.87060 0.28353 0.46589
 C1894 C 0.86370 0.29046 0.47861
 C1895 C 0.84941 0.28530 0.48380
 C1896 C 0.84197 0.27318 0.47629
 C1897 C 0.84897 0.26610 0.46371
 C1898 C 0.86326 0.27126 0.45852
 C1899 C 0.82684 0.26852 0.48102
 C1900 C 0.81400 0.26493 0.48473
 H1901 H 0.86924 0.30000 0.48435
 H1902 H 0.84407 0.29091 0.49349
 H1903 H 0.84328 0.25678 0.45777
 H1904 H 0.86846 0.26586 0.44863
 C1905 C 0.89655 0.79458 -0.04646
 C1906 C 0.88445 0.78982 -0.04172
 C1907 C 0.86976 0.78450 -0.03637
 C1908 C 0.86855 0.77079 -0.02807
 C1909 C 0.85416 0.76565 -0.02308
 C1910 C 0.84095 0.77423 -0.02639
 C1911 C 0.84220 0.78795 -0.03465
 C1912 C 0.85655 0.79307 -0.03963
 C1913 C 0.82607 0.76902 -0.02149
 C1914 C 0.81337 0.76507 -0.01766
 H1915 H 0.87869 0.76407 -0.02550
 H1916 H 0.85333 0.75502 -0.01671
 H1917 H 0.83206 0.79466 -0.03729
 H1918 H 0.85735 0.80369 -0.04605
 C1919 C -0.14366 -0.04713 -0.04716
 C1920 C -0.13168 -0.04207 -0.04241
 C1921 C -0.11722 -0.03617 -0.03704
 C1922 C -0.11406 -0.03555 -0.02133
 C1923 C -0.09980 -0.03019 -0.01620
 C1924 C -0.08868 -0.02544 -0.02676
 C1925 C -0.09189 -0.02596 -0.04245
 C1926 C -0.10613 -0.03131 -0.04758
 C1927 C -0.07380 -0.02044 -0.02160
 C1928 C -0.06118 -0.01647 -0.01753
 H1929 H -0.12254 -0.03932 -0.01308
 H1930 H -0.09742 -0.02989 -0.00404
 H1931 H -0.08335 -0.02236 -0.05071
 H1932 H -0.10843 -0.03178 -0.05975
 C1933 C -0.14425 0.45354 0.45261
 C1934 C -0.13227 0.45854 0.45741
 C1935 C -0.11781 0.46433 0.46289
 C1936 C -0.10735 0.47087 0.45261
 C1937 C -0.09306 0.47602 0.45779
 C1938 C -0.08916 0.47465 0.47328
 C1939 C -0.09966 0.46822 0.48360
 C1940 C -0.11396 0.46307 0.47841
 C1941 C -0.07421 0.47944 0.47842
 C1942 C -0.06154 0.48328 0.48245
 H1943 H -0.11018 0.47185 0.44058
 H1944 H -0.08501 0.48092 0.44971
 H1945 H -0.09674 0.46707 0.49559
 H1946 H -0.12195 0.45798 0.48644
 C1947 C 0.35450 -0.04473 0.45420
 C1948 C 0.36631 -0.03972 0.45937
 C1949 C 0.38062 -0.03399 0.46530
 C1950 C 0.38774 -0.02133 0.45841
 C1951 C 0.40205 -0.01629 0.46363
 C1952 C 0.40931 -0.02388 0.47577
 C1953 C 0.40211 -0.03641 0.48280
 C1954 C 0.38779 -0.04146 0.47757
 C1955 C 0.42445 -0.01928 0.48051
 C1956 C 0.43730 -0.01568 0.48417
 H1957 H 0.38233 -0.01553 0.44886
 H1958 H 0.40757 -0.00664 0.45806
 H1959 H 0.40766 -0.04242 0.49213
 H1960 H 0.38242 -0.05131 0.48293
 C1961 C 0.35207 0.45640 -0.04406
 C1962 C 0.36396 0.46144 -0.03910
 C1963 C 0.37838 0.46713 -0.03341
 C1964 C 0.38658 0.45865 -0.02252
 C1965 C 0.40099 0.46370 -0.01759
 C1966 C 0.40727 0.47726 -0.02352
 C1967 C 0.39899 0.48587 -0.03426
 C1968 C 0.38456 0.48081 -0.03920
 C1969 C 0.42248 0.48192 -0.01909
 C1970 C 0.43538 0.48546 -0.01556
 H1971 H 0.38194 0.44802 -0.01803
 H1972 H 0.40733 0.45692 -0.00934
 H1973 H 0.40377 0.49633 -0.03897
 H1974 H 0.37835 0.48742 -0.04767
 C1975 C 0.39635 0.45676 0.79440
 C1976 C 0.38440 0.46175 0.78954
 C1977 C 0.36992 0.46742 0.78400
 C1978 C 0.36315 0.48033 0.79077
 C1979 C 0.34867 0.48531 0.78595
 C1980 C 0.34090 0.47738 0.77434
 C1981 C 0.34775 0.46458 0.76744
 C1982 C 0.36223 0.45961 0.77226
 C1983 C 0.32565 0.48193 0.76995
 C1984 C 0.31273 0.48544 0.76646
 H1985 H 0.36896 0.48641 0.79992
 H1986 H 0.34343 0.49517 0.79142
 H1987 H 0.34181 0.45833 0.75851
 H1988 H 0.36732 0.44957 0.76699
 C1989 C 0.39552 -0.04313 0.29548
 C1990 C 0.38344 -0.03824 0.29083
 C1991 C 0.36886 -0.03262 0.28548
 C1992 C 0.36388 -0.03600 0.27062
 C1993 C 0.34944 -0.03104 0.26565
 C1994 C 0.33992 -0.02269 0.27553
 C1995 C 0.34496 -0.01920 0.29035
 C1996 C 0.35939 -0.02415 0.29532
 C1997 C 0.32481 -0.01812 0.27065
 C1998 C 0.31204 -0.01450 0.26673
 H1999 H 0.37109 -0.04259 0.26294
 H2000 H 0.34563 -0.03386 0.25418
 H2001 H 0.33766 -0.01280 0.29811
 H2002 H 0.36311 -0.02152 0.30686
 C2003 C 0.10527 0.54715 0.70444
 C2004 C 0.11728 0.54251 0.70950
 C2005 C 0.13183 0.53725 0.71530
 C2006 C 0.14398 0.54766 0.71699
 C2007 C 0.15828 0.54257 0.72218
 C2008 C 0.16051 0.52703 0.72571
 C2009 C 0.14834 0.51662 0.72412
 C2010 C 0.13401 0.52173 0.71892
 C2011 C 0.17541 0.52181 0.73059
 C2012 C 0.18804 0.51771 0.73447
 H2013 H 0.14243 0.55968 0.71418
 H2014 H 0.16762 0.55071 0.72332
 H2015 H 0.14995 0.50458 0.72678
 H2016 H 0.12471 0.51357 0.71762
 C2017 C 0.10323 0.04307 0.20530
 C2018 C 0.11517 0.03820 0.21030
 C2019 C 0.12964 0.03269 0.21605
 C2020 C 0.13698 0.04047 0.22802
 C2021 C 0.15143 0.03564 0.23308
 C2022 C 0.15859 0.02301 0.22619
 C2023 C 0.15116 0.01511 0.21434
 C2024 C 0.13671 0.01994 0.20928
 C2025 C 0.17384 0.01862 0.23078
 C2026 C 0.18677 0.01522 0.23436
 H2027 H 0.13165 0.05040 0.23328
 H2028 H 0.15711 0.04189 0.24218
 H2029 H 0.15663 0.00538 0.20888
 H2030 H 0.13116 0.01389 0.19996
 C2031 C 0.64490 0.70469 0.20253
 C2032 C 0.63289 0.70963 0.20728
 C2033 C 0.61836 0.71529 0.21269
 C2034 C 0.60543 0.71449 0.20319
 C2035 C 0.59119 0.71966 0.20847
 C2036 C 0.58981 0.72566 0.22327
 C2037 C 0.60276 0.72655 0.23276
 C2038 C 0.61701 0.72137 0.22748
 C2039 C 0.57506 0.73070 0.22870
 C2040 C 0.56254 0.73474 0.23296
 H2041 H 0.60634 0.70980 0.19175
 H2042 H 0.58126 0.71891 0.20104
 H2043 H 0.60181 0.73116 0.24423
 H2044 H 0.62694 0.72203 0.23492
 C2045 C 0.14334 0.70341 0.70157
 C2046 C 0.13139 0.70839 0.70645
 C2047 C 0.11694 0.71416 0.71197
 C2048 C 0.11550 0.71930 0.72710
 C2049 C 0.10134 0.72466 0.73245
 C2050 C 0.08858 0.72490 0.72267
 C2051 C 0.09005 0.71982 0.70754
 C2052 C 0.10419 0.71446 0.70221
 C2053 C 0.07388 0.73008 0.72812
 C2054 C 0.06136 0.73418 0.73233
 H2055 H 0.12529 0.71909 0.73475
 H2056 H 0.10031 0.72853 0.74418
 H2057 H 0.08025 0.71992 0.69990
 H2058 H 0.10517 0.71049 0.69050
 C2059 C 0.60724 0.20291 0.54865
 C2060 C 0.61926 0.20777 0.54383
 C2061 C 0.63381 0.21334 0.53834
 C2062 C 0.63493 0.22020 0.52388
 C2063 C 0.64917 0.22537 0.51854
 C2064 C 0.66232 0.22368 0.52763
 C2065 C 0.66116 0.21687 0.54210
 C2066 C 0.64695 0.21171 0.54744
 C2067 C 0.67705 0.22875 0.52217
 C2068 C 0.68958 0.23278 0.51791
 H2069 H 0.62484 0.22149 0.51675
 H2070 H 0.64995 0.23060 0.50733
 H2071 H 0.67125 0.21550 0.54923
 H2072 H 0.64621 0.20641 0.55863
 C2073 C 0.60699 0.70220 0.04632
 C2074 C 0.61884 0.70693 0.04099
 C2075 C 0.63316 0.71239 0.03485
 C2076 C 0.63719 0.72791 0.03626
 C2077 C 0.65140 0.73306 0.03084
 C2078 C 0.66161 0.72271 0.02399
 C2079 C 0.65751 0.70723 0.02244
 C2080 C 0.64331 0.70208 0.02785
 C2081 C 0.67649 0.72784 0.01901
 C2082 C 0.68910 0.73194 0.01507
 H2083 H 0.62944 0.73597 0.04169
 H2084 H 0.65448 0.74504 0.03214
 H2085 H 0.66535 0.69912 0.01721
 H2086 H 0.64032 0.69005 0.02675
 C2087 C 0.14621 0.04504 0.04523
 C2088 C 0.13434 0.04008 0.04011
 C2089 C 0.11996 0.03438 0.03431
 C2090 C 0.11358 0.04067 0.02100
 C2091 C 0.09921 0.03568 0.01584
 C2092 C 0.09118 0.02437 0.02397
 C2093 C 0.09765 0.01795 0.03717
 C2094 C 0.11201 0.02294 0.04233
 C2095 C 0.07603 0.01984 0.01917
 C2096 C 0.06319 0.01625 0.01547
 H2097 H 0.11959 0.04957 0.01476
 H2098 H 0.09427 0.04078 0.00566
 H2099 H 0.09151 0.00926 0.04359
 H2100 H 0.11681 0.01805 0.05268
 C2101 C 0.14523 0.54623 0.54578
 C2102 C 0.13331 0.54142 0.54065
 C2103 C 0.11883 0.53607 0.53478
 C2104 C 0.11693 0.52069 0.53043
 C2105 C 0.10266 0.51553 0.52514
 C2106 C 0.09026 0.52574 0.52417
 C2107 C 0.09220 0.54112 0.52844
 C2108 C 0.10644 0.54627 0.53373
 C2109 C 0.07540 0.52047 0.51923
 C2110 C 0.06273 0.51645 0.51539
 H2111 H 0.12642 0.51269 0.53125
 H2112 H 0.10126 0.50359 0.52192
 H2113 H 0.08268 0.54910 0.52780
 H2114 H 0.10777 0.55817 0.53710
 C2115 C 0.64491 0.04692 0.54522
 C2116 C 0.63296 0.04216 0.54013
 C2117 C 0.61850 0.03662 0.53433
 C2118 C 0.61324 0.02197 0.53837
 C2119 C 0.59889 0.01686 0.53328
 C2120 C 0.58974 0.02638 0.52414
 C2121 C 0.59506 0.04098 0.51998
 C2122 C 0.60941 0.04609 0.52506
 C2123 C 0.57469 0.02141 0.51944
 C2124 C 0.56197 0.01744 0.51570
 H2125 H 0.62014 0.01457 0.54559
 H2126 H 0.59486 0.00557 0.53662
 H2127 H 0.58806 0.04847 0.51296
 H2128 H 0.61334 0.05747 0.52193
 C2129 C 0.64304 0.54634 0.04701
 C2130 C 0.63090 0.54157 0.04237
 C2131 C 0.61622 0.53610 0.03710
 C2132 C 0.61487 0.52889 0.02283
 C2133 C 0.60051 0.52382 0.01770
 C2134 C 0.58746 0.52596 0.02682
 C2135 C 0.58884 0.53312 0.04111
 C2136 C 0.60318 0.53817 0.04624
 C2137 C 0.57261 0.52103 0.02155
 C2138 C 0.56000 0.51709 0.01740
 H2139 H 0.62489 0.52724 0.01567
 H2140 H 0.59957 0.51831 0.00663
 H2141 H 0.57882 0.53484 0.04826
 H2142 H 0.60409 0.54375 0.05728
 C2143 C 0.04434 0.04360 0.14608
 C2144 C 0.03945 0.03874 0.13411
 C2145 C 0.03382 0.03324 0.11964
 C2146 C 0.02404 0.04247 0.11085
 C2147 C 0.01914 0.03749 0.09645
 C2148 C 0.02400 0.02325 0.09076
 C2149 C 0.03363 0.01393 0.09963
 C2150 C 0.03854 0.01891 0.11404
 C2151 C 0.01962 0.01855 0.07559
 C2152 C 0.01617 0.01492 0.06274
 H2153 H 0.02037 0.05359 0.11504
 H2154 H 0.01175 0.04481 0.08966
 H2155 H 0.03751 0.00293 0.09532
 H2156 H 0.04615 0.01171 0.12072
 C2157 C 0.04583 0.54517 0.64475
 C2158 C 0.04112 0.54015 0.63278
 C2159 C 0.03583 0.53455 0.61821
 C2160 C 0.02367 0.52403 0.61735
 C2161 C 0.01854 0.51880 0.60309
 C2162 C 0.02556 0.52409 0.58966
 C2163 C 0.03772 0.53458 0.59055
 C2164 C 0.04283 0.53980 0.60478
 C2165 C 0.02037 0.51893 0.57490
 C2166 C 0.01642 0.51501 0.56227
 H2167 H 0.01815 0.51992 0.62767
 H2168 H 0.00911 0.51070 0.60252
 H2169 H 0.04322 0.53876 0.58024
 H2170 H 0.05222 0.54795 0.60530
 C2171 C 0.54651 0.04684 0.64399
 C2172 C 0.54164 0.04198 0.63202
 C2173 C 0.53598 0.03646 0.61756
 C2174 C 0.53088 0.04693 0.60651
 C2175 C 0.52579 0.04167 0.59227
 C2176 C 0.52577 0.02591 0.58902
 C2177 C 0.53077 0.01542 0.60011
 C2178 C 0.53586 0.02069 0.61436
 C2179 C 0.52094 0.02062 0.57418
 C2180 C 0.51703 0.01649 0.56161
 H2181 H 0.53095 0.05915 0.60886
 H2182 H 0.52199 0.04989 0.58377
 H2183 H 0.53083 0.00322 0.59770
 H2184 H 0.53981 0.01250 0.62282
 C2185 C 0.54552 0.54692 0.14418
 C2186 C 0.54054 0.54216 0.13222
 C2187 C 0.53476 0.53677 0.11775
 C2188 C 0.53163 0.54729 0.10605
 C2189 C 0.52639 0.54211 0.09184
 C2190 C 0.52425 0.52637 0.08926
 C2191 C 0.52730 0.51584 0.10099
 C2192 C 0.53255 0.52103 0.11522
 C2193 C 0.51926 0.52111 0.07448
 C2194 C 0.51524 0.51698 0.06194
 H2195 H 0.53333 0.55948 0.10787
 H2196 H 0.52410 0.55035 0.08284
 H2197 H 0.52572 0.50364 0.09910
 H2198 H 0.53497 0.51279 0.12418
 C2199 C 0.20336 0.54691 0.60678
 C2200 C 0.20810 0.54216 0.61884
 C2201 C 0.21361 0.53679 0.63340
 C2202 C 0.21635 0.52112 0.63579
 C2203 C 0.22144 0.51594 0.65007
 C2204 C 0.22379 0.52643 0.66201
 C2205 C 0.22112 0.54210 0.65959
 C2206 C 0.21604 0.54727 0.64532
 C2207 C 0.22868 0.52117 0.67683
 C2208 C 0.23265 0.51707 0.68939
 H2209 H 0.21449 0.51291 0.62665
 H2210 H 0.22345 0.50379 0.65183
 H2211 H 0.22288 0.55031 0.66874
 H2212 H 0.21394 0.55941 0.64361
 C2213 C 0.20446 0.04400 0.10402
 C2214 C 0.20938 0.03883 0.11583
 C2215 C 0.21503 0.03296 0.13016
 C2216 C 0.22855 0.03890 0.13652
 C2217 C 0.23358 0.03382 0.15085
 C2218 C 0.22510 0.02276 0.15887
 C2219 C 0.21169 0.01667 0.15241
 C2220 C 0.20667 0.02175 0.13809
 C2221 C 0.22975 0.01820 0.17401
 C2222 C 0.23339 0.01469 0.18684
 H2223 H 0.23506 0.04763 0.13053
 H2224 H 0.24392 0.03867 0.15577
 H2225 H 0.20500 0.00818 0.15855
 H2226 H 0.19616 0.01713 0.13331
 C2227 C 0.70353 0.20286 0.64431
 C2228 C 0.70838 0.20761 0.63230
 C2229 C 0.71389 0.21309 0.61779
 C2230 C 0.72712 0.22223 0.61700
 C2231 C 0.73242 0.22748 0.60282
 C2232 C 0.72451 0.22361 0.58940
 C2233 C 0.71128 0.21448 0.59021
 C2234 C 0.70599 0.20924 0.60436
 C2235 C 0.72991 0.22885 0.57476
 C2236 C 0.73414 0.23300 0.56231
 H2237 H 0.73332 0.22526 0.62731
 H2238 H 0.74267 0.23451 0.60232
 H2239 H 0.70509 0.21141 0.57990
 H2240 H 0.69576 0.20217 0.60484
 C2241 C 0.70456 0.70371 0.14311
 C2242 C 0.70946 0.70834 0.13107
 C2243 C 0.71507 0.71358 0.11651
 C2244 C 0.72066 0.72858 0.11482
 C2245 C 0.72579 0.73368 0.10053
 C2246 C 0.72534 0.72378 0.08789
 C2247 C 0.71983 0.70877 0.08961
 C2248 C 0.71471 0.70368 0.10388
 C2249 C 0.73029 0.72900 0.07308
 C2250 C 0.73422 0.73305 0.06049
 H2251 H 0.72097 0.73634 0.12451
 H2252 H 0.73001 0.74532 0.09931
 H2253 H 0.71940 0.70104 0.07990
 H2254 H 0.71039 0.69207 0.10505
 C2255 C 0.54830 0.70450 0.10666
 C2256 C 0.54360 0.70985 0.11848
 C2257 C 0.53822 0.71601 0.13277
 C2258 C 0.54881 0.72031 0.14406
 C2259 C 0.54364 0.72574 0.15820
 C2260 C 0.52787 0.72690 0.16111
 C2261 C 0.51728 0.72275 0.14977
 C2262 C 0.52245 0.71731 0.13562
 C2263 C 0.52263 0.73188 0.17590
 C2264 C 0.51847 0.73581 0.18845
 H2265 H 0.56103 0.71931 0.14199
 H2266 H 0.55194 0.72887 0.16690
 H2267 H 0.50506 0.72356 0.15193
 H2268 H 0.51417 0.71398 0.12698
 C2269 C 0.04698 0.70414 0.60553
 C2270 C 0.04234 0.70915 0.61752
 C2271 C 0.03705 0.71495 0.63200
 C2272 C 0.02196 0.72030 0.63361
 C2273 C 0.01680 0.72561 0.64781
 C2274 C 0.02671 0.72560 0.66044
 C2275 C 0.04183 0.72035 0.65880
 C2276 C 0.04698 0.71504 0.64461
 C2277 C 0.02137 0.73066 0.67517
 C2278 C 0.01712 0.73467 0.68767
 H2279 H 0.01419 0.72026 0.62393
 H2280 H 0.00509 0.72963 0.64897
 H2281 H 0.04958 0.72026 0.66849
 H2282 H 0.05866 0.71091 0.64350
 C2283 C 0.54661 0.60688 0.20333
 C2284 C 0.54205 0.61905 0.20805
 C2285 C 0.53684 0.63377 0.21343
 C2286 C 0.54204 0.64719 0.20628
 C2287 C 0.53706 0.66154 0.21143
 C2288 C 0.52686 0.66255 0.22377
 C2289 C 0.52164 0.64913 0.23094
 C2290 C 0.52663 0.63476 0.22578
 C2291 C 0.52180 0.67738 0.22898
 C2292 C 0.51780 0.68997 0.23307
 H2293 H 0.54994 0.64656 0.19673
 H2294 H 0.54116 0.67184 0.20581
 H2295 H 0.51375 0.64978 0.24049
 H2296 H 0.52255 0.62445 0.23140
 C2297 C 0.04493 0.60613 0.70284
 C2298 C 0.03986 0.61817 0.70741
 C2299 C 0.03405 0.63272 0.71264
 C2300 C 0.03513 0.63676 0.72812
 C2301 C 0.03000 0.65116 0.73305
 C2302 C 0.02379 0.66157 0.72252
 C2303 C 0.02260 0.65749 0.70706
 C2304 C 0.02771 0.64309 0.70213
 C2305 C 0.01906 0.67661 0.72746
 C2306 C 0.01530 0.68932 0.73144
 H2307 H 0.04006 0.62885 0.73632
 H2308 H 0.03103 0.65422 0.74502
 H2309 H 0.01787 0.66547 0.69881
 H2310 H 0.02689 0.64011 0.69013
 C2311 C 0.04416 0.14613 0.04466
 C2312 C 0.03910 0.13429 0.03957
 C2313 C 0.03340 0.11993 0.03374
 C2314 C 0.04192 0.11177 0.02285
 C2315 C 0.03687 0.09739 0.01783
 C2316 C 0.02328 0.09109 0.02367
 C2317 C 0.01464 0.09935 0.03439
 C2318 C 0.01969 0.11375 0.03942
 C2319 C 0.01864 0.07587 0.01922
 C2320 C 0.01512 0.06296 0.01570
 H2321 H 0.05258 0.11642 0.01844
 H2322 H 0.04368 0.09107 0.00959
 H2323 H 0.00415 0.09456 0.03904
 H2324 H 0.01304 0.11993 0.04789
 C2325 C 0.04459 0.64526 0.54525
 C2326 C 0.03930 0.63353 0.54015
 C2327 C 0.03330 0.61931 0.53427
 C2328 C 0.03979 0.61266 0.52120
 C2329 C 0.03457 0.59839 0.51600
 C2330 C 0.02284 0.59071 0.52386
 C2331 C 0.01620 0.59746 0.53681
 C2332 C 0.02141 0.61173 0.54200
 C2333 C 0.01822 0.57556 0.51914
 C2334 C 0.01471 0.56268 0.51547
 H2335 H 0.04904 0.61838 0.51518
 H2336 H 0.03986 0.59322 0.50603
 H2337 H 0.00720 0.59158 0.54303
 H2338 H 0.01637 0.61673 0.55218
 C2339 C 0.54713 0.14361 0.54825
 C2340 C 0.54207 0.13168 0.54340
 C2341 C 0.53621 0.11725 0.53791
 C2342 C 0.53276 0.11528 0.52238
 C2343 C 0.52745 0.10108 0.51706
 C2344 C 0.52558 0.08882 0.52727
 C2345 C 0.52893 0.09083 0.54281
 C2346 C 0.53423 0.10501 0.54812
 C2347 C 0.52057 0.07405 0.52182
 C2348 C 0.51659 0.06151 0.51754
 H2349 H 0.53427 0.12467 0.51439
 H2350 H 0.52492 0.09963 0.50501
 H2351 H 0.52756 0.08141 0.55079
 H2352 H 0.53690 0.10640 0.56015
 C2353 C 0.54598 0.64390 0.04816
 C2354 C 0.54057 0.63210 0.04337
 C2355 C 0.53434 0.61785 0.03783
 C2356 C 0.52655 0.60802 0.04786
 C2357 C 0.52104 0.59387 0.04265
 C2358 C 0.52329 0.58949 0.02740
 C2359 C 0.53095 0.59939 0.01733
 C2360 C 0.53646 0.61355 0.02253
 C2361 C 0.51826 0.57463 0.02225
 C2362 C 0.51431 0.56203 0.01812
 H2363 H 0.52490 0.61122 0.05972
 H2364 H 0.51520 0.58627 0.05056
 H2365 H 0.53282 0.59608 0.00553
 H2366 H 0.54253 0.62104 0.01470
 C2367 C 0.70497 0.10522 0.54767
 C2368 C 0.71013 0.11722 0.54310
 C2369 C 0.71607 0.13172 0.53786
 C2370 C 0.72053 0.14292 0.54849
 C2371 C 0.72579 0.15722 0.54345
 C2372 C 0.72662 0.16041 0.52776
 C2373 C 0.72227 0.14917 0.51713
 C2374 C 0.71700 0.13486 0.52217
 C2375 C 0.73151 0.17534 0.52265
 C2376 C 0.73538 0.18798 0.51856
 H2377 H 0.71981 0.14064 0.56065
 H2378 H 0.72907 0.16584 0.55178
 H2379 H 0.72280 0.15153 0.50497
 H2380 H 0.71353 0.12630 0.51385
 C2381 C 0.70310 0.60570 0.04671
 C2382 C 0.70796 0.61773 0.04190
 C2383 C 0.71350 0.63227 0.03634
 C2384 C 0.70437 0.64542 0.03787
 C2385 C 0.70972 0.65961 0.03262
 C2386 C 0.72423 0.66073 0.02581
 C2387 C 0.73338 0.64759 0.02426
 C2388 C 0.72802 0.63338 0.02951
 C2389 C 0.72968 0.67543 0.02057
 C2390 C 0.73392 0.68792 0.01636
 H2391 H 0.69314 0.64471 0.04315
 H2392 H 0.70256 0.66970 0.03391
 H2393 H 0.74463 0.64833 0.01903
 H2394 H 0.73519 0.62328 0.02829
 C2395 C 0.20343 0.64414 0.70198
 C2396 C 0.20856 0.63230 0.70696
 C2397 C 0.21452 0.61800 0.71264
 C2398 C 0.21448 0.61489 0.72837
 C2399 C 0.21984 0.60075 0.73378
 C2400 C 0.22526 0.58968 0.72348
 C2401 C 0.22541 0.59285 0.70777
 C2402 C 0.22006 0.60697 0.70237
 C2403 C 0.23019 0.57488 0.72889
 C2404 C 0.23409 0.56230 0.73312
 H2405 H 0.21017 0.62332 0.73641
 H2406 H 0.21961 0.59839 0.74594
 H2407 H 0.22952 0.58434 0.69970
 H2408 H 0.22010 0.60923 0.69018
 C2409 C 0.20515 0.14617 0.20474
 C2410 C 0.21014 0.13433 0.20986
 C2411 C 0.21576 0.11996 0.21573
 C2412 C 0.20687 0.11154 0.22612
 C2413 C 0.21187 0.09715 0.23116
 C2414 C 0.22579 0.09112 0.22583
 C2415 C 0.23479 0.09963 0.21561
 C2416 C 0.22979 0.11403 0.21057
 C2417 C 0.23043 0.07592 0.23030
 C2418 C 0.23404 0.06303 0.23381
 H2419 H 0.19597 0.11599 0.23012
 H2420 H 0.20479 0.09064 0.23901
 H2421 H 0.24553 0.09505 0.21137
 H2422 H 0.23672 0.12042 0.20248
 C2423 C 0.70399 1.14560 0.70508
 C2424 C 0.70899 1.13384 0.71038
 C2425 C 0.71461 1.11957 0.71647
 C2426 C 0.72993 1.11522 0.71419
 C2427 C 0.73511 1.10094 0.71942
 C2428 C 0.72497 1.09097 0.72694
 C2429 C 0.70972 1.09543 0.72941
 C2430 C 0.70455 1.10969 0.72418
 C2431 C 0.72994 1.07590 0.73150
 C2432 C 0.73371 1.06308 0.73507
 H2433 H 0.73779 1.12275 0.70819
 H2434 H 0.74691 1.09758 0.71740
 H2435 H 0.70177 1.08779 0.73515
 H2436 H 0.69267 1.11291 0.72596
 C2437 C 0.70533 0.64582 0.20427
 C2438 C 0.71038 0.63406 0.20951
 C2439 C 0.71611 0.61978 0.21551
 C2440 C 0.70776 0.61188 0.22671
 C2441 C 0.71282 0.59756 0.23190
 C2442 C 0.72625 0.59107 0.22590
 C2443 C 0.73472 0.59908 0.21486
 C2444 C 0.72967 0.61341 0.20967
 C2445 C 0.73087 0.57590 0.23051
 C2446 C 0.73444 0.56303 0.23411
 H2447 H 0.69723 0.61668 0.23125
 H2448 H 0.70613 0.59144 0.24038
 H2449 H 0.74508 0.59414 0.21009
 H2450 H 0.73618 0.61939 0.20095
 C2451 C 0.54531 0.10600 0.70289
 C2452 C 0.54026 0.11792 0.70777
 C2453 C 0.53441 0.13231 0.71340
 C2454 C 0.53733 0.13684 0.72851
 C2455 C 0.53214 0.15109 0.73378
 C2456 C 0.52400 0.16086 0.72397
 C2457 C 0.52096 0.15627 0.70890
 C2458 C 0.52615 0.14203 0.70363
 C2459 C 0.51919 0.17579 0.72917
 C2460 C 0.51537 0.18842 0.73331
 H2461 H 0.54375 0.12943 0.73614
 H2462 H 0.53460 0.15455 0.74543
 H2463 H 0.51473 0.16377 0.70120
 H2464 H 0.52387 0.13866 0.69192
 C2465 C 1.04358 0.10273 0.20503
 C2466 C 1.03864 0.11470 0.20990
 C2467 C 1.03298 0.12920 0.21545
 C2468 C 1.03895 0.13556 0.22892
 C2469 C 1.03399 0.15001 0.23388
 C2470 C 1.02304 0.15815 0.22538
 C2471 C 1.01695 0.15171 0.21200
 C2472 C 1.02191 0.13727 0.20705
 C2473 C 1.01853 0.17336 0.23000
 C2474 C 1.01496 0.18624 0.23359
 H2475 H 1.04757 0.12946 0.23546
 H2476 H 1.03884 0.15492 0.24419
 H2477 H 1.00854 0.15794 0.20530
 H2478 H 1.01727 0.13249 0.19657
 C2479 C 0.20448 0.60630 0.54710
 C2480 C 0.20941 0.61831 0.54229
 C2481 C 0.21505 0.63282 0.53677
 C2482 C 0.21656 0.63543 0.52102
 C2483 C 0.22159 0.64972 0.51569
 C2484 C 0.22512 0.66146 0.52609
 C2485 C 0.22368 0.65882 0.54183
 C2486 C 0.21866 0.64453 0.54715
 C2487 C 0.22991 0.67631 0.52066
 C2488 C 0.23377 0.68889 0.51636
 H2489 H 0.21375 0.62647 0.51289
 H2490 H 0.22262 0.65166 0.50349
 H2491 H 0.22633 0.66782 0.54997
 H2492 H 0.21748 0.64266 0.55935
 C2493 C 0.20467 0.10490 1.04690
 C2494 C 0.20961 0.11695 1.04225
 C2495 C 0.21531 0.13150 1.03689
 C2496 C 0.21453 0.13520 1.02131
 C2497 C 0.21963 0.14955 1.01621
 C2498 C 0.22552 0.16024 1.02666
 C2499 C 0.22638 0.15649 1.04222
 C2500 C 0.22129 0.14215 1.04732
 C2501 C 0.23030 0.17519 1.02153
 C2502 C 0.23412 0.18785 1.01743
 H2503 H 0.20987 0.12707 1.01316
 H2504 H 0.21885 0.15236 1.00416
 H2505 H 0.23086 0.16469 1.05041
 H2506 H 0.22189 0.13942 1.05940
 C2507 C 0.20324 0.70359 0.64234
 C2508 C 0.20830 0.70852 0.63048
 C2509 C 0.21418 0.71412 0.61615
 C2510 C 0.21322 0.72977 0.61253
 C2511 C 0.21845 0.73506 0.59834
 C2512 C 0.22466 0.72472 0.58774
 C2513 C 0.22573 0.70910 0.59141
 C2514 C 0.22050 0.70381 0.60558
 C2515 C 0.22953 0.72999 0.57291
 C2516 C 0.23344 0.73408 0.56033
 H2517 H 0.20831 0.73783 0.62060
 H2518 H 0.21752 0.74716 0.59560
 H2519 H 0.23046 0.70100 0.58328
 H2520 H 0.22126 0.69169 0.60824
 C2521 C 0.20396 0.20353 1.14412
 C2522 C 0.20861 0.20816 1.13198
 C2523 C 0.21395 0.21342 1.11733
 C2524 C 0.21231 0.20399 1.10446
 C2525 C 0.21731 0.20908 1.09015
 C2526 C 0.22398 0.22365 1.08864
 C2527 C 0.22565 0.23309 1.10151
 C2528 C 0.22064 0.22799 1.11584
 C2529 C 0.22895 0.22885 1.07384
 C2530 C 0.23295 0.23295 1.06129
 H2531 H 0.20712 0.19272 1.10548
 H2532 H 0.21594 0.20170 1.08026
 H2533 H 0.23078 0.24438 1.10046
 H2534 H 0.22194 0.23538 1.12573
 C2535 C 0.70438 0.54462 0.10472
 C2536 C 0.70951 0.53943 0.11644
 C2537 C 0.71531 0.53349 0.13067
 C2538 C 0.72832 0.54009 0.13745
 C2539 C 0.73341 0.53491 0.15173
 C2540 C 0.72551 0.52311 0.15928
 C2541 C 0.71263 0.51637 0.15240
 C2542 C 0.70755 0.52155 0.13812
 C2543 C 0.73012 0.51846 0.17440
 C2544 C 0.73369 0.51486 0.18723
 H2545 H 0.73436 0.54938 0.13183
 H2546 H 0.74333 0.54026 0.15699
 H2547 H 0.70638 0.50731 0.15817
 H2548 H 0.69743 0.51642 0.13302
 C2549 C 0.70372 1.04501 0.60548
 C2550 C 0.70830 1.03992 0.61747
 C2551 C 0.71342 1.03419 0.63204
 C2552 C 0.70430 1.03645 0.64503
 C2553 C 0.70932 1.03128 0.65930
 C2554 C 0.72350 1.02382 0.66068
 C2555 C 0.73261 1.02147 0.64768
 C2556 C 0.72758 1.02665 0.63337
 C2557 C 0.72869 1.01893 0.67553
 C2558 C 0.73265 1.01520 0.68820
 H2559 H 0.69335 1.04229 0.64414
 H2560 H 0.70220 1.03320 0.66928
 H2561 H 0.74361 1.01575 0.64862
 H2562 H 0.73474 1.02487 0.62340
 C2563 C 0.54718 0.20319 0.60769
 C2564 C 0.54214 0.20801 0.61959
 C2565 C 0.53629 0.21345 0.63399
 C2566 C 0.53358 0.20301 0.64588
 C2567 C 0.52826 0.20825 0.66002
 C2568 C 0.52562 0.22395 0.66235
 C2569 C 0.52824 0.23439 0.65043
 C2570 C 0.53357 0.22914 0.63627
 C2571 C 0.52057 0.22929 0.67707
 C2572 C 0.51653 0.23346 0.68958
 H2573 H 0.53567 0.19086 0.64425
 H2574 H 0.52630 0.20009 0.66917
 H2575 H 0.52627 0.24655 0.65212
 H2576 H 0.53566 0.23730 0.62715
 C2577 C 1.04397 0.20509 0.10380
 C2578 C 1.03891 0.21013 0.11561
 C2579 C 1.03313 0.21587 0.12993
 C2580 C 1.02075 0.20856 0.13709
 C2581 C 1.01569 0.21359 0.15142
 C2582 C 1.02300 0.22597 0.15864
 C2583 C 1.03525 0.23342 0.15138
 C2584 C 1.04031 0.22838 0.13705
 C2585 C 1.01844 0.23050 0.17380
 C2586 C 1.01491 0.23401 0.18666
 H2587 H 1.01517 0.19882 0.13173
 H2588 H 1.00626 0.20769 0.15698
 H2589 H 1.04104 0.24294 0.15690
 H2590 H 1.04995 0.23407 0.13165
 C2591 C 0.64390 0.20373 0.70374
 C2592 C 0.63189 0.20867 0.70852
 C2593 C 0.61737 0.21434 0.71396
 C2594 C 0.60523 0.21646 0.70366
 C2595 C 0.59096 0.22155 0.70893
 C2596 C 0.58875 0.22455 0.72452
 C2597 C 0.60093 0.22254 0.73481
 C2598 C 0.61521 0.21744 0.72954
 C2599 C 0.57391 0.22940 0.72989
 C2600 C 0.56131 0.23330 0.73409
 H2601 H 0.60676 0.21407 0.69160
 H2602 H 0.58162 0.22305 0.70087
 H2603 H 0.59934 0.22481 0.74690
 H2604 H 0.62452 0.21581 0.73760
 C2605 C 1.14578 0.20502 0.20495
 C2606 C 1.13391 0.20999 0.20999
 C2607 C 1.11952 0.21564 0.21577
 C2608 C 1.11179 0.22743 0.20804
 C2609 C 1.09738 0.23232 0.21313
 C2610 C 1.09064 0.22544 0.22597
 C2611 C 1.09846 0.21380 0.23382
 C2612 C 1.11287 0.20891 0.22873
 C2613 C 1.07542 0.22984 0.23064
 C2614 C 1.06253 0.23331 0.23425
 H2615 H 1.11679 0.23266 0.19797
 H2616 H 1.09140 0.24128 0.20694
 H2617 H 1.09331 0.20836 0.24371
 H2618 H 1.11872 0.19974 0.23474
 C2619 C 0.10585 0.70334 0.54532
 C2620 C 0.11779 0.70809 0.54019
 C2621 C 0.13222 0.71352 0.53425
 C2622 C 0.14232 0.70322 0.52716
 C2623 C 0.15658 0.70832 0.52185
 C2624 C 0.16081 0.72374 0.52361
 C2625 C 0.15066 0.73408 0.53059
 C2626 C 0.13639 0.72897 0.53590
 C2627 C 0.17574 0.72881 0.51869
 C2628 C 0.18839 0.73285 0.51478
 H2629 H 0.13923 0.69123 0.52587
 H2630 H 0.16436 0.70022 0.51653
 H2631 H 0.15384 0.74602 0.53206
 H2632 H 0.12869 0.73703 0.54140
 C2633 C 0.10502 0.20349 1.04579
 C2634 C 0.11719 0.20808 1.04108
 C2635 C 0.13190 0.21327 1.03567
 C2636 C 0.14504 0.20448 1.03860
 C2637 C 0.15940 0.20951 1.03352
 C2638 C 0.16070 0.22336 1.02548
 C2639 C 0.14756 0.23215 1.02250
 C2640 C 0.13318 0.22711 1.02759
 C2641 C 0.17557 0.22854 1.02046
 C2642 C 0.18818 0.23262 1.01649
 H2643 H 0.14419 0.19377 1.04484
 H2644 H 0.16949 0.20263 1.03590
 H2645 H 0.14844 0.24289 1.01630
 H2646 H 0.12309 0.23400 1.02527
 C2647 C 0.60412 0.54521 0.20472
 C2648 C 0.61587 0.54003 0.20986
 C2649 C 0.63013 0.53417 0.21575
 C2650 C 0.63754 0.52200 0.20831
 C2651 C 0.65185 0.51691 0.21347
 C2652 C 0.65882 0.52396 0.22610
 C2653 C 0.65131 0.53599 0.23368
 C2654 C 0.63699 0.54108 0.22851
 C2655 C 0.67396 0.51938 0.23081
 C2656 C 0.68682 0.51582 0.23448
 H2657 H 0.63237 0.51663 0.19838
 H2658 H 0.65760 0.50766 0.20748
 H2659 H 0.65663 0.54158 0.24340
 H2660 H 0.63139 0.55055 0.23430
 C2661 C 0.60409 1.04544 0.70451
 C2662 C 0.61577 1.04029 0.70985
 C2663 C 0.62995 1.03442 0.71598
 C2664 C 0.63719 1.02188 0.70900
 C2665 C 0.65142 1.01676 0.71439
 C2666 C 0.65845 1.02414 0.72679
 C2667 C 0.65111 1.03653 0.73392
 C2668 C 0.63688 1.04166 0.72853
 C2669 C 0.67354 1.01952 0.73169
 C2670 C 0.68637 1.01593 0.73546
 H2671 H 0.63197 1.01625 0.69925
 H2672 H 0.65704 1.00722 0.70873
 H2673 H 0.65649 1.04238 0.74345
 H2674 H 0.63141 1.05141 0.73397
 C2675 C 0.89345 0.45350 0.29810
 C2676 C 0.88166 0.45883 0.29318
 C2677 C 0.86741 0.46495 0.28752
 C2678 C 0.86294 0.46228 0.27235
 C2679 C 0.84876 0.46767 0.26707
 C2680 C 0.83901 0.47576 0.27694
 C2681 C 0.84355 0.47857 0.29206
 C2682 C 0.85772 0.47319 0.29733
 C2683 C 0.82410 0.48067 0.27177
 C2684 C 0.81147 0.48454 0.26766
 H2685 H 0.87031 0.45588 0.26468
 H2686 H 0.84533 0.46537 0.25538
 H2687 H 0.83607 0.48475 0.29981
 H2688 H 0.86104 0.47527 0.30910
 C2689 C 0.89358 0.95413 0.79793
 C2690 C 0.88170 0.95929 0.79307
 C2691 C 0.86735 0.96526 0.78746
 C2692 C 0.86229 0.96153 0.77270
 C2693 C 0.84807 0.96686 0.76749
 C2694 C 0.83885 0.97593 0.77702
 C2695 C 0.84397 0.97977 0.79173
 C2696 C 0.85819 0.97444 0.79694
 C2697 C 0.82390 0.98082 0.77196
 C2698 C 0.81124 0.98468 0.76794
 H2699 H 0.86925 0.95439 0.76530
 H2700 H 0.84418 0.96377 0.75613
 H2701 H 0.83691 0.98672 0.79922
 H2702 H 0.86197 0.97735 0.80839
 C2703 C 0.35305 0.29366 0.79487
 C2704 C 0.36504 0.28867 0.79010
 C2705 C 0.37955 0.28299 0.78465
 C2706 C 0.38643 0.28962 0.77176
 C2707 C 0.40091 0.28467 0.76694
 C2708 C 0.40858 0.27307 0.77499
 C2709 C 0.40163 0.26630 0.78777
 C2710 C 0.38714 0.27125 0.79259
 C2711 C 0.42384 0.26860 0.77053
 C2712 C 0.43677 0.26516 0.76700
 H2713 H 0.38069 0.29876 0.76558
 H2714 H 0.40622 0.29004 0.75709
 H2715 H 0.40750 0.25738 0.79412
 H2716 H 0.38196 0.26609 0.80262
 C2717 C 0.85572 0.29607 0.29722
 C2718 C 0.86776 0.29127 0.29238
 C2719 C 0.88230 0.28582 0.28676
 C2720 C 0.89440 0.29619 0.28459
 C2721 C 0.90864 0.29095 0.27939
 C2722 C 0.91084 0.27531 0.27632
 C2723 C 0.89873 0.26493 0.27845
 C2724 C 0.88447 0.27018 0.28366
 C2725 C 0.92562 0.26999 0.27122
 C2726 C 0.93814 0.26583 0.26709
 H2727 H 0.89286 0.30830 0.28699
 H2728 H 0.91794 0.29907 0.27783
 H2729 H 0.90032 0.25281 0.27614
 H2730 H 0.87519 0.26207 0.28533
 C2731 C 0.39655 0.79472 0.45470
 C2732 C 0.38450 0.78979 0.45938
 C2733 C 0.36993 0.78414 0.46471
 C2734 C 0.36409 0.78899 0.47884
 C2735 C 0.34961 0.78403 0.48368
 C2736 C 0.34091 0.77419 0.47441
 C2737 C 0.34681 0.76921 0.46036
 C2738 C 0.36129 0.77417 0.45552
 C2739 C 0.32570 0.76967 0.47901
 C2740 C 0.31282 0.76610 0.48260
 H2741 H 0.37065 0.79675 0.48600
 H2742 H 0.34513 0.78801 0.49454
 H2743 H 0.34015 0.76167 0.45307
 H2744 H 0.36565 0.77040 0.44454
 C2745 C 0.39636 0.29360 0.95601
 C2746 C 0.38442 0.28852 0.96081
 C2747 C 0.36995 0.28278 0.96631
 C2748 C 0.36281 0.28979 0.97885
 C2749 C 0.34834 0.28478 0.98369
 C2750 C 0.34095 0.27275 0.97600
 C2751 C 0.34817 0.26561 0.96358
 C2752 C 0.36264 0.27061 0.95874
 C2753 C 0.32571 0.26822 0.98045
 C2754 C 0.31280 0.26473 0.98400
 H2755 H 0.36832 0.29925 0.98474
 H2756 H 0.34283 0.29044 0.99326
 H2757 H 0.34253 0.25634 0.95750
 H2758 H 0.36803 0.26516 0.94898
 C2759 C 0.79673 0.45293 0.39356
 C2760 C 0.79189 0.45765 0.38153
 C2761 C 0.78639 0.46308 0.36698
 C2762 C 0.77417 0.47351 0.36624
 C2763 C 0.76893 0.47876 0.35204
 C2764 C 0.77590 0.47358 0.33855
 C2765 C 0.78811 0.46315 0.33931
 C2766 C 0.79334 0.45791 0.35349
 C2767 C 0.77061 0.47889 0.32389
 C2768 C 0.76645 0.48309 0.31143
 H2769 H 0.76871 0.47758 0.37661
 H2770 H 0.75947 0.48683 0.35157
 H2771 H 0.79358 0.45907 0.32895
 H2772 H 0.80281 0.44985 0.35393
 C2773 C 0.79725 0.95270 0.89390
 C2774 C 0.79238 0.95753 0.88193
 C2775 C 0.78687 0.96310 0.86744
 C2776 C 0.79570 0.96085 0.85424
 C2777 C 0.79039 0.96613 0.84010
 C2778 C 0.77623 0.97368 0.83908
 C2779 C 0.76739 0.97596 0.85228
 C2780 C 0.77271 0.97068 0.86644
 C2781 C 0.77080 0.97892 0.82444
 C2782 C 0.76655 0.98308 0.81200
 H2783 H 0.80665 0.95500 0.85488
 H2784 H 0.79730 0.96428 0.82996
 H2785 H 0.75641 0.98176 0.85161
 H2786 H 0.76579 0.97246 0.87658
 C2787 C 0.29404 0.79519 0.35311
 C2788 C 0.28890 0.79013 0.36488
 C2789 C 0.28308 0.78434 0.37916
 C2790 C 0.29030 0.77189 0.38631
 C2791 C 0.28522 0.76683 0.40062
 C2792 C 0.27289 0.77419 0.40784
 C2793 C 0.26553 0.78650 0.40059
 C2794 C 0.27061 0.79157 0.38627
 C2795 C 0.26834 0.76962 0.42299
 C2796 C 0.26485 0.76606 0.43586
 H2797 H 0.30000 0.76628 0.38094
 H2798 H 0.29105 0.75735 0.40615
 H2799 H 0.25605 0.79233 0.40611
 H2800 H 0.26499 0.80126 0.38088
 C2801 C 0.29284 0.29362 0.85367
 C2802 C 0.28787 0.28870 0.86556
 C2803 C 0.28226 0.28310 0.87999
 C2804 C 0.29003 0.27123 0.88755
 C2805 C 0.28511 0.26636 0.90198
 C2806 C 0.27241 0.27334 0.90892
 C2807 C 0.26452 0.28508 0.90128
 C2808 C 0.26944 0.28995 0.88684
 C2809 C 0.26791 0.26893 0.92413
 C2810 C 0.26444 0.26545 0.93702
 H2811 H 0.30001 0.26591 0.88240
 H2812 H 0.29135 0.25734 0.90782
 H2813 H 0.25474 0.29062 0.90658
 H2814 H 0.26340 0.29920 0.88114
 C2815 C 0.45649 0.29463 0.89707
 C2816 C 0.46151 0.28976 0.88518
 C2817 C 0.46720 0.28416 0.87076
 C2818 C 0.46016 0.27152 0.86372
 C2819 C 0.46513 0.26658 0.84933
 C2820 C 0.47716 0.27424 0.84192
 C2821 C 0.48432 0.28676 0.84904
 C2822 C 0.47935 0.29171 0.86344
 C2823 C 0.48167 0.26971 0.82673
 C2824 C 0.48515 0.26614 0.81387
 H2825 H 0.45071 0.26565 0.86925
 H2826 H 0.45946 0.25694 0.84390
 H2827 H 0.49357 0.29283 0.84338
 H2828 H 0.48482 0.30154 0.86874
 C2829 C 0.95478 0.29590 0.39393
 C2830 C 0.95963 0.29111 0.38193
 C2831 C 0.96524 0.28567 0.36742
 C2832 C 0.97056 0.29618 0.35652
 C2833 C 0.97555 0.29103 0.34221
 C2834 C 0.97524 0.27532 0.33873
 C2835 C 0.97003 0.26478 0.34967
 C2836 C 0.96504 0.26994 0.36399
 C2837 C 0.97991 0.27014 0.32381
 C2838 C 0.98366 0.26606 0.31117
 H2839 H 0.97073 0.30837 0.35903
 H2840 H 0.97951 0.29929 0.33383
 H2841 H 0.96971 0.25262 0.34709
 H2842 H 0.96091 0.26171 0.37232
 C2843 C 0.45580 0.39686 0.79441
 C2844 C 0.46070 0.38488 0.78953
 C2845 C 0.46628 0.37037 0.78398
 C2846 C 0.45891 0.36308 0.77171
 C2847 C 0.46381 0.34858 0.76686
 C2848 C 0.47609 0.34131 0.77425
 C2849 C 0.48359 0.34868 0.78638
 C2850 C 0.47869 0.36318 0.79124
 C2851 C 0.48055 0.32603 0.76982
 C2852 C 0.48403 0.31310 0.76634
 H2853 H 0.44925 0.36850 0.76607
 H2854 H 0.45788 0.34295 0.75751
 H2855 H 0.49305 0.34313 0.79223
 H2856 H 0.48443 0.36868 0.80079
 C2857 C 0.95201 0.39276 0.29692
 C2858 C 0.95676 0.38089 0.29164
 C2859 C 0.96219 0.36654 0.28553
 C2860 C 0.95163 0.35532 0.28090
 C2861 C 0.95683 0.34116 0.27544
 C2862 C 0.97261 0.33816 0.27458
 C2863 C 0.98317 0.34942 0.27909
 C2864 C 0.97797 0.36360 0.28456
 C2865 C 0.97787 0.32335 0.26953
 C2866 C 0.98203 0.31078 0.26554
 H2867 H 0.93940 0.35747 0.28165
 H2868 H 0.94856 0.33251 0.27204
 H2869 H 0.99540 0.34719 0.27852
 H2870 H 0.98623 0.37218 0.28815
 C2871 C 0.29507 0.89638 0.45432
 C2872 C 0.28989 0.88460 0.45940
 C2873 C 0.28399 0.87032 0.46520
 C2874 C 0.27188 0.86291 0.45765
 C2875 C 0.26675 0.84858 0.46275
 C2876 C 0.27371 0.84160 0.47541
 C2877 C 0.28565 0.84912 0.48311
 C2878 C 0.29079 0.86345 0.47802
 C2879 C 0.26915 0.82640 0.48000
 C2880 C 0.26564 0.81350 0.48357
 H2881 H 0.26659 0.86809 0.44769
 H2882 H 0.25755 0.84283 0.45667
 H2883 H 0.29116 0.84379 0.49287
 H2884 H 0.30020 0.86905 0.48390
 C2885 C 0.29400 0.39619 0.95583
 C2886 C 0.28942 0.38407 0.96068
 C2887 C 0.28433 0.36938 0.96625
 C2888 C 0.29504 0.35759 0.96851
 C2889 C 0.29017 0.34313 0.97344
 C2890 C 0.27456 0.34036 0.97616
 C2891 C 0.26385 0.35217 0.97403
 C2892 C 0.26873 0.36666 0.96909
 C2893 C 0.26962 0.32527 0.98073
 C2894 C 0.26585 0.31245 0.98433
 H2895 H 0.30713 0.35955 0.96632
 H2896 H 0.29855 0.33407 0.97501
 H2897 H 0.25174 0.35014 0.97606
 H2898 H 0.26034 0.37569 0.96735
 C2899 C 0.79618 0.35584 0.29719
 C2900 C 0.79139 0.36792 0.29244
 C2901 C 0.78589 0.38252 0.28702
 C2902 C 0.77970 0.38392 0.27229
 C2903 C 0.77461 0.39822 0.26702
 C2904 C 0.77570 0.41117 0.27648
 C2905 C 0.78183 0.40975 0.29123
 C2906 C 0.78691 0.39547 0.29649
 C2907 C 0.77071 0.42597 0.27111
 C2908 C 0.76672 0.43854 0.26692
 H2909 H 0.77887 0.37398 0.26487
 H2910 H 0.76990 0.39919 0.25559
 H2911 H 0.78274 0.41969 0.29864
 H2912 H 0.79169 0.39453 0.30789
   
