data_POSCAR
  _audit_creation_date              2014-09-24
  _audit_creation_method            'ToBaCCo'
  _symmetry_space_group_name_H-M    'P1'
  _symmetry_Int_Tables_number       1
  _symmetry_cell_setting            triclinic
  loop_
  _symmetry_equiv_pos_as_xyz
 x,y,z
_cell_length_a 44.2066
_cell_length_b 43.7248
_cell_length_c 45.7895
_cell_angle_alpha 89.522100
_cell_angle_beta 90.550200
_cell_angle_gamma 90.405300
loop_
  _atom_site_label
  _atom_site_type_symbol
  _atom_site_fract_x
  _atom_site_fract_y
  _atom_site_fract_z
C1 C 0.29720 0.44946 0.90701
 C2 C 0.31999 0.46576 0.92122
 C3 C 0.33281 0.45510 0.94726
 C4 C 0.32328 0.42689 0.95929
 C5 C 0.30058 0.40951 0.94491
 C6 C 0.28743 0.42121 0.91887
 H7 H 0.32747 0.48747 0.91208
 H8 H 0.33328 0.41871 0.97955
 H9 H 0.27019 0.40796 0.90762
 C10 C 0.45477 0.82757 0.43719
 C11 C 0.42929 0.81741 0.45243
 C12 C 0.40887 0.79687 0.43909
 C13 C 0.41375 0.78676 0.41081
 C14 C 0.43922 0.79612 0.39566
 C15 C 0.45978 0.81682 0.40883
 H16 H 0.42577 0.82488 0.47464
 H17 H 0.39784 0.77098 0.40074
 H18 H 0.48007 0.82395 0.39748
 C19 C 0.94423 0.91377 0.80971
 C20 C 0.91838 0.92960 0.80157
 C21 C 0.91105 0.95733 0.81489
 C22 C 0.92998 0.96913 0.83694
 C23 C 0.95629 0.95336 0.84530
 C24 C 0.96331 0.92568 0.83171
 H25 H 0.90384 0.91993 0.78480
 H26 H 0.92464 0.99079 0.84694
 H27 H 0.98393 0.91389 0.83785
 C28 C 0.46259 -0.08146 0.30418
 C29 C 0.47885 -0.06723 0.32632
 C30 C 0.46720 -0.04174 0.34032
 C31 C 0.43960 -0.02946 0.33126
 C32 C 0.42251 -0.04343 0.30926
 C33 C 0.43413 -0.06962 0.29535
 H34 H 0.49990 -0.07732 0.33377
 H35 H 0.43026 -0.01032 0.34295
 H36 H 0.42081 -0.08127 0.27885
 C37 C 0.79356 0.29852 0.33389
 C38 C 0.77743 0.32290 0.32132
 C39 C 0.78791 0.33750 0.29617
 C40 C 0.81436 0.32731 0.28279
 C41 C 0.83066 0.30307 0.29478
 C42 C 0.82007 0.28844 0.32040
 H43 H 0.75756 0.33180 0.33188
 H44 H 0.82321 0.33908 0.26376
 H45 H 0.83299 0.27025 0.33060
 C46 C -0.20622 0.84066 0.79282
 C47 C -0.21559 0.83442 0.82109
 C48 C -0.19751 0.81758 0.84042
 C49 C -0.16986 0.80517 0.83045
 C50 C -0.16090 0.81038 0.80100
 C51 C -0.17913 0.82860 0.78275
 H52 H -0.23620 0.84483 0.82888
 H53 H -0.15499 0.79320 0.84552
 H54 H -0.17187 0.83374 0.76069
 C55 C 0.93880 0.34473 0.44244
 C56 C 0.91180 0.33091 0.45177
 C57 C 0.90137 0.30346 0.43915
 C58 C 0.91858 0.28959 0.41770
 C59 C 0.94565 0.30315 0.40807
 C60 C 0.95576 0.33062 0.42056
 H61 H 0.89844 0.34228 0.46808
 H62 H 0.91002 0.26890 0.40762
 H63 H 0.97616 0.34144 0.41244
 C64 C 0.44419 0.44408 0.83450
 C65 C 0.46101 0.41947 0.82413
 C66 C 0.44948 0.40138 0.80147
 C67 C 0.42075 0.40765 0.78955
 C68 C 0.40367 0.43188 0.79972
 C69 C 0.41551 0.45028 0.82232
 H70 H 0.48330 0.41486 0.83310
 H71 H 0.41135 0.39353 0.77234
 H72 H 0.40286 0.46972 0.82998
 C73 C 0.79894 0.93137 0.95668
 C74 C 0.78973 0.94450 0.93021
 C75 C 0.80805 0.96627 0.91608
 C76 C 0.83520 0.97565 0.92932
 C77 C 0.84451 0.96257 0.95612
 C78 C 0.82613 0.94088 0.96985
 H79 H 0.76924 0.93612 0.91977
 H80 H 0.84967 0.99181 0.91797
 H81 H 0.83409 0.93001 0.98980
 C82 C 0.30329 0.83804 0.31417
 C83 C 0.32977 0.82678 0.30215
 C84 C 0.34724 0.80511 0.31694
 C85 C 0.33822 0.79531 0.34508
 C86 C 0.31174 0.80681 0.35824
 C87 C 0.29407 0.82828 0.34229
 H88 H 0.33603 0.83410 0.28033
 H89 H 0.35171 0.77850 0.35671
 H90 H 0.27317 0.83668 0.35128
 C91 C 0.78810 0.42786 0.44939
 C92 C 0.77216 0.43739 0.42404
 C93 C 0.78559 0.45779 0.40425
 C94 C 0.81439 0.46977 0.41069
 C95 C 0.83042 0.45976 0.43523
 C96 C 0.81693 0.43969 0.45508
 H97 H 0.75064 0.42698 0.41830
 H98 H 0.82599 0.48409 0.39487
 H99 H 0.83026 0.43023 0.47294
 C100 C 0.95448 0.84120 -0.05046
 C101 C 0.92621 0.82822 -0.04380
 C102 C 0.91463 0.80363 -0.06033
 C103 C 0.93165 0.79218 -0.08308
 C104 C 0.96014 0.80482 -0.08952
 C105 C 0.97134 0.82950 -0.07341
 H106 H 0.91350 0.83710 -0.02566
 H107 H 0.92238 0.77365 -0.09600
 H108 H 0.99334 0.83918 -0.07844
 C109 C 0.29795 0.32395 0.79932
 C110 C 0.32397 0.30901 0.79019
 C111 C 0.33743 0.28639 0.80790
 C112 C 0.32429 0.27871 0.83462
 C113 C 0.29809 0.29380 0.84403
 C114 C 0.28479 0.31591 0.82611
 H115 H 0.33444 0.31618 0.76995
 H116 H 0.33531 0.26190 0.84850
 H117 H 0.26525 0.32805 0.83397
 C118 C 0.15330 0.55134 0.55629
 C119 C 0.16994 0.53759 0.57914
 C120 C 0.19704 0.55120 0.58953
 C121 C 0.20730 0.57839 0.57654
 C122 C 0.19087 0.59232 0.55360
 C123 C 0.16417 0.57865 0.54356
 H124 H 0.16112 0.51707 0.58948
 H125 H 0.22756 0.58922 0.58518
 H126 H 0.15143 0.58998 0.52635
 C127 C 0.58409 0.69990 0.04046
 C128 C 0.57112 0.67295 0.02955
 C129 C 0.54507 0.66029 0.04227
 C130 C 0.53110 0.67511 0.06501
 C131 C 0.54365 0.70129 0.07715
 C132 C 0.57050 0.71408 0.06497
 H133 H 0.58207 0.66130 0.01179
 H134 H 0.51128 0.66476 0.07491
 H135 H 0.58089 0.73409 0.07467
 C136 C 0.70262 0.19306 0.65360
 C137 C 0.67382 0.20409 0.66090
 C138 C 0.66043 0.19598 0.68720
 C139 C 0.67564 0.17638 0.70657
 C140 C 0.70416 0.16517 0.69981
 C141 C 0.71780 0.17331 0.67318
 H142 H 0.66155 0.21910 0.64613
 H143 H 0.66559 0.17014 0.72730
 H144 H 0.74012 0.16497 0.66800
 C145 C 1.09125 0.04080 0.20200
 C146 C 1.07832 0.02866 0.17645
 C147 C 1.05258 0.04218 0.16378
 C148 C 1.03997 0.06808 0.17672
 C149 C 1.05308 0.08022 0.20230
 C150 C 1.07837 0.06644 0.21479
 H151 H 1.08806 0.00853 0.16672
 H152 H 1.01992 0.07837 0.16718
 H153 H 1.08845 0.07639 0.23420
 C154 C 0.06048 0.16362 1.06840
 C155 C 0.04442 0.17928 1.08973
 C156 C 0.05537 0.20708 1.10065
 C157 C 0.08285 0.21913 1.09040
 C158 C 0.09912 0.20369 1.06894
 C159 C 0.08779 0.17589 1.05800
 H160 H 0.02300 0.17014 1.09730
 H161 H 0.09122 0.24083 1.09855
 H162 H 0.10033 0.16371 1.04163
 C163 C 0.16747 0.70074 0.71567
 C164 C 0.18099 0.71576 0.69200
 C165 C 0.20388 0.70162 0.67640
 C166 C 0.21334 0.67193 0.68469
 C167 C 0.19981 0.65725 0.70890
 C168 C 0.17776 0.67226 0.72461
 H169 H 0.17255 0.73769 0.68450
 H170 H 0.23002 0.66008 0.67194
 H171 H 0.16650 0.66040 0.74238
 C172 C 1.20371 0.16409 0.20500
 C173 C 1.17694 0.17593 0.21755
 C174 C 1.16259 0.20188 0.20468
 C175 C 1.17511 0.21570 0.18011
 C176 C 1.20025 0.20352 0.16673
 C177 C 1.21476 0.17793 0.17937
 H178 H 1.16702 0.16472 0.23636
 H179 H 1.16370 0.23494 0.16991
 H180 H 1.23425 0.16814 0.16888
 C181 C 0.66615 1.05249 0.56329
 C182 C 0.67551 1.05403 0.59229
 C183 C 0.69705 1.07579 0.60164
 C184 C 0.70668 1.09842 0.58208
 C185 C 0.69639 1.09809 0.55299
 C186 C 0.67652 1.07469 0.54335
 H187 H 0.66782 1.03617 0.60707
 H188 H 0.72367 1.11493 0.58893
 H189 H 0.67046 1.07299 0.52042
 C190 C 0.54032 0.55065 0.15085
 C191 C 0.52992 0.57698 0.16508
 C192 C 0.54322 0.58636 0.19179
 C193 C 0.56653 0.56909 0.20406
 C194 C 0.57742 0.54316 0.18984
 C195 C 0.56397 0.53374 0.16365
 H196 H 0.51243 0.59065 0.15477
 H197 H 0.57737 0.57710 0.22392
 H198 H 0.57319 0.51420 0.15250
 C199 C 0.66513 0.71397 0.19256
 C200 C 0.67512 0.68471 0.20190
 C201 C 0.70029 0.67126 0.18822
 C202 C 0.71420 0.68667 0.16520
 C203 C 0.70369 0.71528 0.15594
 C204 C 0.68052 0.72942 0.17065
 H205 H 0.66286 0.67220 0.21856
 H206 H 0.73223 0.67556 0.15354
 H207 H 0.67189 0.75106 0.16251
 C208 C 0.17264 0.03731 1.05766
 C209 C 0.18751 0.06403 1.04792
 C210 C 0.20726 0.07987 1.06699
 C211 C 0.21184 0.06868 1.09521
 C212 C 0.19693 0.04203 1.10483
 C213 C 0.17722 0.02662 1.08611
 H214 H 0.18389 0.07216 1.02576
 H215 H 0.22699 0.08106 1.10969
 H216 H 0.16606 0.00583 1.09349
 C217 C 0.57707 0.18995 0.54332
 C218 C 0.56730 0.20562 0.56827
 C219 C 0.54420 0.19334 0.58561
 C220 C 0.53027 0.16567 0.57760
 C221 C 0.54039 0.14982 0.55344
 C222 C 0.56311 0.16257 0.53578
 H223 H 0.57871 0.22633 0.57530
 H224 H 0.51337 0.15506 0.59142
 H225 H 0.57154 0.15017 0.51719
 C226 C 0.08281 0.55276 0.68907
 C227 C 0.07113 0.53695 0.66485
 C228 C 0.04575 0.54785 0.64978
 C229 C 0.03164 0.57486 0.65910
 C230 C 0.04325 0.59109 0.68295
 C231 C 0.06879 0.57964 0.69805
 H232 H 0.08230 0.51669 0.65699
 H233 H 0.01253 0.58410 0.64707
 H234 H 0.07842 0.59195 0.71637
 C235 C 0.65823 0.55765 0.03947
 C236 C 0.67227 0.58395 0.02768
 C237 C 0.69682 0.59787 0.04227
 C238 C 0.70728 0.58541 0.06851
 C239 C 0.69318 0.56013 0.08132
 C240 C 0.66863 0.54583 0.06668
 H241 H 0.66363 0.59380 0.00752
 H242 H 0.72580 0.59659 0.07998
 H243 H 0.65735 0.52637 0.07662
 C244 C 0.04821 0.70279 0.59249
 C245 C 0.03351 0.68087 0.57496
 C246 C 0.04666 0.67097 0.54885
 C247 C 0.07435 0.68315 0.54024
 C248 C 0.08994 0.70422 0.55745
 C249 C 0.07680 0.71446 0.58369
 H250 H 0.01235 0.67091 0.58220
 H251 H 0.08479 0.67476 0.52056
 H252 H 0.08896 0.73052 0.59739
 C253 C 0.54517 1.03031 0.66131
 C254 C 0.57356 1.02398 0.67334
 C255 C 0.58558 1.04182 0.69576
 C256 C 0.56906 1.06651 0.70633
 C257 C 0.54044 1.07349 0.69423
 C258 C 0.52853 1.05522 0.67162
 H259 H 0.58627 1.00459 0.66557
 H260 H 0.57875 1.08057 0.72342
 H261 H 0.50647 1.06025 0.66236
 C262 C 0.44895 0.32971 0.94114
 C263 C 0.46052 0.31877 0.91475
 C264 C 0.45556 0.28794 0.90690
 C265 C 0.43897 0.26863 0.92521
 C266 C 0.42642 0.27966 0.95074
 C267 C 0.43303 0.30972 0.95946
 H268 H 0.47106 0.33457 0.89953
 H269 H 0.43297 0.24585 0.91788
 H270 H 0.42210 0.31902 0.97850
 C271 C 0.94966 0.45005 0.33114
 C272 C 0.92539 0.46655 0.31857
 C273 C 0.90886 0.45485 0.29475
 C274 C 0.91708 0.42615 0.28332
 C275 C 0.94110 0.40930 0.29587
 C276 C 0.95733 0.42167 0.31960
 H277 H 0.91848 0.48801 0.32797
 H278 H 0.90413 0.41630 0.26550
 H279 H 0.97543 0.40880 0.32987
 C280 C 0.31288 0.94563 0.41781
 C281 C 0.29253 0.93201 0.43718
 C282 C 0.30208 0.92254 0.46484
 C283 C 0.33130 0.93038 0.47463
 C284 C 0.35168 0.94505 0.45595
 C285 C 0.34245 0.95263 0.42725
 H286 H 0.27076 0.92406 0.42903
 H287 H 0.33931 0.92251 0.49581
 H288 H 0.35871 0.96156 0.41175
 O289 O 0.31484 0.48789 0.79191
 O290 O 0.30519 0.53916 0.78605
 O291 O 0.23192 0.44987 0.82564
 O292 O 0.18365 0.45786 0.81364
 O293 O 0.27585 0.40467 0.75893
 O294 O 0.27578 0.41088 0.70640
 O295 O 0.16315 0.52762 0.72955
 O296 O 0.16378 0.52672 0.77994
 O297 O 0.24721 0.56243 0.70111
 O298 O 0.29805 0.54835 0.70728
 O299 O 0.20511 0.48131 0.66623
 O300 O 0.21366 0.42718 0.68175
 O301 O 0.16439 0.48604 0.69985
 O302 O 0.17241 0.43097 0.71495
 O303 O 0.23927 0.52041 0.66704
 O304 O 0.29664 0.50639 0.68041
 O305 O 0.20688 0.56669 0.73130
 O306 O 0.20592 0.55989 0.78578
 O307 O 0.31849 0.44732 0.76116
 O308 O 0.31326 0.45025 0.70715
 O309 O 0.23434 0.40734 0.78799
 O310 O 0.18120 0.42079 0.77484
 O311 O 0.26976 0.48546 0.82696
 O312 O 0.26148 0.54206 0.81133
 Zr313 Zr 0.27142 0.50467 0.78393
 O314 O 0.25011 0.53159 0.75153
 Zr315 Zr 0.21756 0.45188 0.78188
 O316 O 0.19269 0.47771 0.75122
 Zr317 Zr 0.27690 0.44711 0.73703
 O318 O 0.25303 0.47082 0.70377
 Zr319 Zr 0.20333 0.52453 0.75438
 O320 O 0.22454 0.49909 0.78850
 Zr321 Zr 0.26094 0.51755 0.70890
 O322 O 0.28635 0.49401 0.74142
 Zr323 Zr 0.20621 0.46514 0.70932
 O324 O 0.23001 0.43791 0.73996
 O325 O 0.26392 0.45839 0.77883
 O326 O 0.21463 0.51188 0.71246
 C327 C 0.32911 0.46525 0.78126
 C328 C 0.25356 0.46397 0.83881
 C329 C 0.25746 0.39344 0.77790
 C330 C 0.15188 0.51041 0.70943
 C331 C 0.22549 0.57747 0.71212
 C332 C 0.21803 0.50459 0.65454
 H333 H 0.25569 0.55321 0.75505
 H334 H 0.25923 0.46388 0.68420
 H335 H 0.27548 0.44599 0.79312
 H336 H 0.17076 0.47406 0.75386
 H337 H 0.16944 0.51881 0.79955
 H338 H 0.16568 0.46622 0.80339
 H339 H 0.29322 0.51760 0.66178
 H340 H 0.32824 0.43421 0.71210
 H341 H 0.19064 0.57553 0.78045
 H342 H 0.27358 0.53987 0.82956
 H343 H 0.19808 0.42729 0.66603
 H344 H 0.29275 0.39678 0.71074
 H345 H 0.31605 0.53859 0.76727
 H346 H 0.29773 0.56037 0.72548
 H347 H 0.17991 0.40711 0.79217
 H348 H 0.15854 0.43174 0.69783
 O349 O 0.17294 0.03841 0.26836
 O350 O 0.18613 0.02853 0.31959
 O351 O 0.24789 0.08307 0.23248
 O352 O 0.29979 0.07530 0.24146
 O353 O 0.21238 0.00930 0.18864
 O354 O 0.21707 -0.04587 0.19454
 O355 O 0.33419 -0.01126 0.29724
 O356 O 0.32591 0.04273 0.29949
 O357 O 0.26098 -0.05515 0.33297
 O358 O 0.20431 -0.03985 0.33230
 O359 O 0.28510 -0.08434 0.25804
 O360 O 0.27713 -0.06509 0.20606
 O361 O 0.32867 -0.04652 0.26113
 O362 O 0.31834 -0.03067 0.21040
 O363 O 0.24940 -0.08666 0.29361
 O364 O 0.19589 -0.06966 0.29153
 O365 O 0.29803 -0.01898 0.33686
 O366 O 0.28857 0.03750 0.33745
 O367 O 0.17161 0.00655 0.22909
 O368 O 0.17966 -0.04802 0.23218
 O369 O 0.25076 0.04431 0.19140
 O370 O 0.30398 0.03812 0.20213
 O371 O 0.21404 0.07988 0.26962
 O372 O 0.22511 0.06404 0.32111
 Zr373 Zr 0.21765 0.03424 0.28540
 O374 O 0.24484 0.00328 0.30987
 Zr375 Zr 0.26885 0.03909 0.23340
 O376 O 0.29745 0.00738 0.25479
 Zr377 Zr 0.21406 -0.01395 0.22911
 O378 O 0.23986 -0.04652 0.25149
 Zr379 Zr 0.29089 0.00947 0.29993
 O380 O 0.26404 0.04357 0.27871
 Zr381 Zr 0.23475 -0.04142 0.29673
 O382 O 0.20586 -0.01088 0.27422
 Zr383 Zr 0.28564 -0.03791 0.24347
 O384 O 0.25968 -0.00602 0.21929
 O385 O 0.22360 0.03069 0.24082
 O386 O 0.28036 -0.03499 0.28810
 C387 C 0.15968 0.02639 0.24588
 C388 C 0.22637 0.09432 0.24809
 C389 C 0.22896 0.03093 0.17796
 C390 C 0.34412 -0.03328 0.28127
 C391 C 0.28518 -0.04418 0.34470
 C392 C 0.26907 -0.09897 0.27717
 H393 H 0.24160 0.00596 0.33102
 H394 H 0.23335 -0.06702 0.24479
 H395 H 0.21056 0.04458 0.22930
 H396 H 0.31875 0.01194 0.24978
 H397 H 0.31599 0.06288 0.29742
 H398 H 0.31952 0.06588 0.24630
 H399 H 0.19720 -0.08681 0.30580
 H400 H 0.16490 -0.04511 0.21597
 H401 H 0.30724 0.03411 0.34917
 H402 H 0.20840 0.07905 0.32144
 H403 H 0.29140 -0.08247 0.20644
 H404 H 0.19988 -0.04263 0.18080
 H405 H 0.17545 0.00892 0.31608
 H406 H 0.21541 -0.03286 0.34992
 H407 H 0.30385 0.05790 0.19137
 H408 H 0.33145 -0.04894 0.20947
 O409 O 0.57263 0.70887 0.23964
 O410 O 0.56095 0.70568 0.28502
 O411 O 0.49139 0.67861 0.19273
 O412 O 0.44473 0.69212 0.18899
 O413 O 0.54371 0.75799 0.16286
 O414 O 0.53962 0.80967 0.17542
 O415 O 0.41878 0.76292 0.27637
 O416 O 0.42036 0.71140 0.26578
 O417 O 0.49860 0.79216 0.31459
 O418 O 0.54808 0.78629 0.30712
 O419 O 0.46215 0.83848 0.23834
 O420 O 0.47028 0.82796 0.18645
 O421 O 0.42212 0.80213 0.24351
 O422 O 0.42888 0.79248 0.18812
 O423 O 0.49428 0.83370 0.27720
 O424 O 0.55135 0.82253 0.26941
 O425 O 0.45805 0.75984 0.31243
 O426 O 0.46097 0.70231 0.29954
 O427 O 0.57956 0.74812 0.20721
 O428 O 0.57216 0.80415 0.21723
 O429 O 0.50407 0.72509 0.15663
 O430 O 0.44619 0.73768 0.16629
 O431 O 0.52624 0.67187 0.22905
 O432 O 0.51579 0.68154 0.28445
 Zr433 Zr 0.52808 0.71424 0.25215
 O434 O 0.50494 0.74351 0.28040
 Zr435 Zr 0.47962 0.72429 0.19722
 O436 O 0.45130 0.74945 0.22521
 Zr437 Zr 0.53773 0.77236 0.20546
 O438 O 0.51016 0.80202 0.22935
 Zr439 Zr 0.45910 0.73977 0.26995
 O440 O 0.48218 0.70963 0.24164
 Zr441 Zr 0.51564 0.79014 0.27302
 O442 O 0.54348 0.76034 0.24937
 Zr443 Zr 0.46355 0.79526 0.22036
 O444 O 0.49163 0.77012 0.19195
 O445 O 0.52498 0.72664 0.20851
 O446 O 0.46992 0.78551 0.26433
 C447 C 0.58875 0.72426 0.22176
 C448 C 0.51067 0.66239 0.20674
 C449 C 0.52827 0.73923 0.14754
 C450 C 0.40906 0.78786 0.26500
 C451 C 0.47528 0.77960 0.32559
 C452 C 0.47441 0.84849 0.26167
 H453 H 0.50906 0.73731 0.30089
 H454 H 0.51628 0.82352 0.22561
 H455 H 0.53765 0.71336 0.19633
 H456 H 0.42970 0.74621 0.22013
 H457 H 0.42720 0.69252 0.25615
 H458 H 0.43095 0.69323 0.20582
 H459 H 0.54850 0.83799 0.28483
 H460 H 0.58963 0.80132 0.20414
 H461 H 0.44511 0.70551 0.31433
 H462 H 0.52618 0.66208 0.28019
 H463 H 0.45402 0.84343 0.18724
 H464 H 0.55925 0.80950 0.16509
 H465 H 0.56057 0.72348 0.29817
 H466 H 0.56592 0.77622 0.29866
 H467 H 0.45095 0.72802 0.14739
 H468 H 0.41433 0.80911 0.19181
 O469 O 0.00201 0.78036 0.83545
 O470 O 0.05538 0.77645 0.82504
 O471 O -0.03647 0.83139 0.76772
 O472 O -0.03602 0.82786 0.71520
 O473 O -0.07481 0.74646 0.79581
 O474 O -0.06322 0.69427 0.77566
 O475 O 0.04362 0.76129 0.67828
 O476 O 0.02990 0.81389 0.69145
 O477 O 0.08425 0.72024 0.74525
 O478 O 0.07398 0.71441 0.80015
 O479 O 0.00872 0.67765 0.70752
 O480 O -0.04663 0.68618 0.71551
 O481 O 0.00983 0.72202 0.67393
 O482 O -0.04635 0.72913 0.68291
 O483 O 0.04640 0.67629 0.74172
 O484 O 0.04501 0.67640 0.79147
 O485 O 0.08201 0.76226 0.71561
 O486 O 0.06566 0.81542 0.73116
 O487 O -0.03167 0.74071 0.83183
 O488 O -0.02652 0.68886 0.81386
 O489 O -0.07771 0.78805 0.76567
 O490 O -0.06943 0.78781 0.71132
 O491 O 0.00211 0.82701 0.80090
 O492 O 0.05513 0.81817 0.79417
 Zr493 Zr 0.02064 0.78408 0.79361
 O494 O 0.04956 0.76360 0.76389
 Zr495 Zr -0.03519 0.78976 0.74404
 O496 O -0.00808 0.76838 0.71225
 Zr497 Zr -0.03131 0.72867 0.78744
 O498 O -0.00363 0.70534 0.75794
 Zr499 Zr 0.03764 0.77722 0.72119
 O500 O 0.01074 0.80077 0.75131
 Zr501 Zr 0.04195 0.71642 0.76549
 O502 O 0.01474 0.73653 0.79743
 Zr503 Zr -0.01242 0.72045 0.71497
 O504 O -0.04261 0.74207 0.74448
 O505 O -0.02491 0.77563 0.78598
 O506 O 0.03295 0.72986 0.72283
 C507 C -0.01846 0.76239 0.84591
 C508 C -0.01986 0.84150 0.78905
 C509 C -0.08872 0.77004 0.78554
 C510 C 0.03145 0.73913 0.66399
 C511 C 0.09573 0.73918 0.72667
 C512 C 0.03155 0.66479 0.72032
 H513 H 0.07065 0.76941 0.76884
 H514 H -0.00732 0.68308 0.76011
 H515 H -0.03727 0.78666 0.80025
 H516 H -0.01361 0.77582 0.69244
 H517 H 0.04774 0.81585 0.67860
 H518 H -0.01583 0.83770 0.71657
 H519 H 0.02831 0.67749 0.80563
 H520 H -0.04384 0.68774 0.82743
 H521 H 0.08203 0.81664 0.71655
 H522 H 0.05417 0.82946 0.81286
 H523 H -0.04433 0.67333 0.69795
 H524 H -0.07886 0.69279 0.79097
 H525 H 0.05194 0.75594 0.83375
 H526 H 0.08829 0.73171 0.79772
 H527 H -0.08508 0.80313 0.71597
 H528 H -0.04339 0.71477 0.66656
 O529 O 0.02495 0.08192 0.04052
 O530 O -0.02595 0.08186 0.03004
 O531 O 0.04376 -0.00397 0.08107
 O532 O 0.04470 -0.05076 0.07141
 O533 O 0.09879 0.01900 -0.00333
 O534 O 0.09395 0.04699 -0.03917
 O535 O -0.03329 -0.07327 -0.00005
 O536 O -0.03544 -0.06132 0.04638
 O537 O -0.06098 0.01009 -0.04595
 O538 O -0.04904 0.05878 -0.04274
 O539 O 0.01157 -0.03858 -0.07655
 O540 O 0.06601 -0.03655 -0.06148
 O541 O 0.00400 -0.07939 -0.03350
 O542 O 0.05802 -0.07411 -0.02583
 O543 O -0.01591 0.00499 -0.08096
 O544 O -0.00543 0.06159 -0.06598
 O545 O -0.06872 -0.02634 -0.01106
 O546 O -0.06195 -0.01581 0.04359
 O547 O 0.06288 0.07769 0.00763
 O548 O 0.05303 0.06340 -0.05168
 O549 O 0.09224 -0.00291 0.04096
 O550 O 0.07237 -0.05826 0.03208
 O551 O 0.01177 0.03649 0.07889
 O552 O -0.03988 0.04287 0.05931
 Zr553 Zr 0.00018 0.04154 0.03410
 O554 O -0.02989 0.01908 0.00514
 Zr555 Zr 0.04659 -0.01787 0.03731
 O556 O 0.01685 -0.04322 0.01081
 Zr557 Zr 0.05556 0.03533 -0.01383
 O558 O 0.02858 0.01009 -0.04357
 Zr559 Zr -0.02796 -0.02794 0.01345
 O560 O 0.00101 -0.00552 0.04350
 Zr561 Zr -0.01633 0.02389 -0.03851
 O562 O 0.01101 0.05070 -0.00993
 Zr563 Zr 0.02810 -0.03699 -0.03326
 O564 O 0.05890 -0.01230 -0.00661
 O565 O 0.04547 0.02899 0.03025
 O566 O -0.01672 -0.02316 -0.03045
 C567 C 0.04870 0.09212 0.02768
 C568 C 0.02759 0.01663 0.09309
 C569 C 0.10914 0.00774 0.02052
 C570 C -0.01778 -0.08966 -0.01744
 C571 C -0.07745 -0.00988 -0.03300
 C572 C -0.00367 -0.01902 -0.09161
 H573 H -0.05066 0.02685 0.00769
 H574 H 0.03601 0.01357 -0.06365
 H575 H 0.05933 0.03908 0.04437
 H576 H 0.01869 -0.06482 0.01707
 H577 H -0.02508 -0.05373 0.06419
 H578 H 0.02600 -0.06282 0.06806
 H579 H -0.01575 0.05884 -0.08510
 H580 H 0.04639 0.08376 -0.04500
 H581 H -0.07990 -0.02901 0.03996
 H582 H -0.03698 0.05759 0.07551
 H583 H 0.06298 -0.05225 -0.07675
 H584 H 0.10322 0.06576 -0.03064
 H585 H -0.02055 0.09181 0.01127
 H586 H -0.04949 0.06936 -0.02379
 H587 H 0.09113 -0.05669 0.04404
 H588 H 0.05567 -0.08890 -0.04202
 O589 O 0.06612 0.55738 0.49863
 O590 O 0.05911 0.56107 0.44907
 O591 O -0.01919 0.58822 0.53424
 O592 O -0.06753 0.57667 0.52388
 O593 O 0.02402 0.51183 0.56856
 O594 O 0.01913 0.45661 0.55303
 O595 O -0.08348 0.50426 0.44114
 O596 O -0.08505 0.55660 0.45619
 O597 O -0.00909 0.47841 0.40980
 O598 O 0.04782 0.48945 0.42228
 O599 O -0.04154 0.42898 0.47746
 O600 O -0.03893 0.43625 0.53145
 O601 O -0.08189 0.46322 0.47221
 O602 O -0.08120 0.47020 0.52784
 O603 O -0.00321 0.43571 0.44513
 O604 O 0.04837 0.45016 0.45233
 O605 O -0.04364 0.51670 0.40908
 O606 O -0.04134 0.57028 0.42651
 O607 O 0.06772 0.51751 0.53105
 O608 O 0.06158 0.46367 0.52252
 O609 O -0.01739 0.54260 0.56885
 O610 O -0.06947 0.52955 0.55268
 O611 O 0.02009 0.59526 0.50290
 O612 O 0.01687 0.58976 0.44741
 Zr613 Zr 0.02318 0.55420 0.47864
 O614 O 0.00151 0.52772 0.44623
 Zr615 Zr -0.03309 0.54322 0.52551
 O616 O -0.05744 0.51676 0.49503
 Zr617 Zr 0.02543 0.49520 0.52520
 O618 O 0.00328 0.46666 0.49472
 Zr619 Zr -0.04528 0.53023 0.45271
 O620 O -0.02383 0.55939 0.48308
 Zr621 Zr 0.01195 0.48119 0.45176
 O622 O 0.03683 0.50813 0.48213
 Zr623 Zr -0.04377 0.47103 0.49917
 O624 O -0.02159 0.49707 0.53185
 O625 O 0.01354 0.54065 0.52086
 O626 O -0.03401 0.48438 0.45677
 C627 C 0.07943 0.54125 0.51849
 C628 C 0.00279 0.60409 0.52379
 C629 C 0.00566 0.53025 0.58121
 C630 C -0.09269 0.47790 0.45004
 C631 C -0.03022 0.49420 0.39726
 C632 C -0.02460 0.41968 0.45671
 H633 H 0.00701 0.53549 0.42663
 H634 H 0.00984 0.44530 0.49803
 H635 H 0.02491 0.55327 0.53506
 H636 H -0.07953 0.51852 0.49782
 H637 H -0.07889 0.57600 0.46561
 H638 H -0.08578 0.56695 0.51530
 H639 H 0.06273 0.45761 0.46742
 H640 H 0.07359 0.46454 0.54090
 H641 H -0.05782 0.56986 0.41168
 H642 H 0.02972 0.60744 0.45314
 H643 H -0.05400 0.41990 0.52737
 H644 H 0.03274 0.45859 0.57025
 H645 H 0.06656 0.54046 0.44421
 H646 H 0.04047 0.50372 0.40695
 H647 H -0.07190 0.54533 0.56789
 H648 H -0.09446 0.45281 0.52222
 O649 O 0.60162 0.01608 0.51890
 O650 O 0.60116 0.01237 0.46770
 O651 O 0.51889 0.05751 0.54152
 O652 O 0.47108 0.05122 0.53217
 O653 O 0.54405 -0.02883 0.58412
 O654 O 0.53908 -0.08158 0.56605
 O655 O 0.44951 -0.01477 0.45074
 O656 O 0.45982 0.03557 0.46186
 O657 O 0.52844 -0.05492 0.42259
 O658 O 0.58361 -0.05231 0.44246
 O659 O 0.48040 -0.09969 0.48485
 O660 O 0.47961 -0.09408 0.53873
 O661 O 0.44164 -0.05463 0.48224
 O662 O 0.44432 -0.05431 0.53643
 O663 O 0.52515 -0.09951 0.46071
 O664 O 0.57537 -0.09072 0.46776
 O665 O 0.49498 -0.01577 0.41996
 O666 O 0.50581 0.03786 0.43474
 O667 O 0.59520 -0.02478 0.54952
 O668 O 0.58433 -0.07751 0.54137
 O669 O 0.51111 0.01081 0.58070
 O670 O 0.46002 0.00594 0.55933
 O671 O 0.56098 0.05748 0.51320
 O672 O 0.56490 0.04931 0.46098
 Zr673 Zr 0.56183 0.01474 0.49369
 O674 O 0.53927 -0.00828 0.45971
 Zr675 Zr 0.50063 0.01337 0.53576
 O676 O 0.47583 -0.01006 0.50347
 Zr677 Zr 0.55122 -0.04251 0.54060
 O678 O 0.52819 -0.06791 0.50829
 Zr679 Zr 0.49290 0.00078 0.46224
 O680 O 0.51581 0.02659 0.49412
 Zr681 Zr 0.54300 -0.05545 0.46655
 O682 O 0.56852 -0.03251 0.49899
 Zr683 Zr 0.48174 -0.05757 0.50790
 O684 O 0.50447 -0.03411 0.54230
 O685 O 0.54661 0.00436 0.53561
 O686 O 0.49682 -0.04661 0.46628
 C687 C 0.61087 -0.00226 0.53904
 C688 C 0.54231 0.07040 0.53015
 C689 C 0.52696 -0.00848 0.59543
 C690 C 0.43306 -0.03622 0.46160
 C691 C 0.50937 -0.03801 0.40878
 C692 C 0.50061 -0.11258 0.46903
 H693 H 0.54751 -0.00176 0.44063
 H694 H 0.53163 -0.08987 0.51236
 H695 H 0.55732 0.01601 0.55107
 H696 H 0.45426 -0.00451 0.50499
 H697 H 0.46899 0.05333 0.47199
 H698 H 0.45366 0.04486 0.51988
 H699 H 0.58258 -0.09199 0.48824
 H700 H 0.59487 -0.07742 0.56060
 H701 H 0.49103 0.03907 0.41835
 H702 H 0.58189 0.06333 0.46603
 H703 H 0.46301 -0.10822 0.53296
 H704 H 0.55080 -0.08172 0.58463
 H705 H 0.60968 -0.00834 0.47040
 H706 H 0.58093 -0.03654 0.42707
 H707 H 0.45868 0.02154 0.57486
 H708 H 0.42874 -0.06948 0.53042
 O709 O 0.41634 0.50833 -0.04262
 O710 O 0.43455 0.55746 -0.04090
 O711 O 0.48984 0.46206 -0.09002
 O712 O 0.53859 0.45418 -0.08121
 O713 O 0.44381 0.42306 -0.01641
 O714 O 0.46160 0.42692 0.03658
 O715 O 0.58091 0.52669 -0.00411
 O716 O 0.57419 0.51682 -0.05570
 O717 O 0.51377 0.57358 0.02697
 O718 O 0.45650 0.56968 0.02681
 O719 O 0.53772 0.48945 0.06666
 O720 O 0.52248 0.43561 0.05387
 O721 O 0.57631 0.48869 0.02990
 O722 O 0.56085 0.43418 0.01752
 O723 O 0.50873 0.53225 0.06721
 O724 O 0.45662 0.53571 0.06074
 O725 O 0.54803 0.56937 -0.00953
 O726 O 0.53776 0.55807 -0.06151
 O727 O 0.41175 0.47070 -0.00813
 O728 O 0.42634 0.46719 0.04147
 O729 O 0.47943 0.41756 -0.05152
 O730 O 0.53513 0.41836 -0.04099
 O731 O 0.45904 0.50347 -0.08697
 O732 O 0.47199 0.55594 -0.07298
 Zr733 Zr 0.46318 0.51895 -0.04374
 O734 O 0.49503 0.54270 -0.01818
 Zr735 Zr 0.50701 0.45713 -0.04682
 O736 O 0.54077 0.47869 -0.02060
 Zr737 Zr 0.45648 0.46325 0.00588
 O738 O 0.48753 0.48565 0.03381
 Zr739 Zr 0.53875 0.52613 -0.02638
 O740 O 0.50717 0.50467 -0.05457
 Zr741 Zr 0.48754 0.53301 0.02599
 O742 O 0.45385 0.51116 0.00063
 Zr743 Zr 0.53163 0.47178 0.02400
 O744 O 0.50004 0.44692 -0.00234
 O745 O 0.46347 0.47203 -0.03828
 O746 O 0.53109 0.51882 0.01780
 C747 C 0.40061 0.48989 -0.02657
 C748 C 0.47205 0.48231 -0.10138
 C749 C 0.45523 0.40902 -0.03824
 C750 C 0.59089 0.51108 0.01798
 C751 C 0.53579 0.58385 0.01132
 C752 C 0.52739 0.51346 0.07922
 H753 H 0.49332 0.56474 -0.02288
 H754 H 0.48244 0.48084 0.05436
 H755 H 0.44785 0.46316 -0.05138
 H756 H 0.56118 0.47102 -0.02512
 H757 H 0.56433 0.51038 -0.07418
 H758 H 0.55901 0.45740 -0.07270
 H759 H 0.43974 0.52166 0.05574
 H760 H 0.41091 0.45067 0.04012
 H761 H 0.55724 0.56947 -0.06141
 H762 H 0.45585 0.55683 -0.08819
 H763 H 0.53912 0.43489 0.06852
 H764 H 0.44460 0.41225 0.03411
 H765 H 0.42750 0.55838 -0.02048
 H766 H 0.46192 0.58414 0.01094
 H767 H 0.53171 0.40453 -0.05777
 H768 H 0.57616 0.43407 0.03347
 O769 O 0.76704 0.34531 0.48943
 O770 O 0.76362 0.33547 0.54182
 O771 O 0.81456 0.26913 0.45700
 O772 O 0.80977 0.21816 0.46126
 O773 O 0.73244 0.29961 0.41650
 O774 O 0.67899 0.28405 0.42909
 O775 O 0.74181 0.17957 0.53032
 O776 O 0.79186 0.19506 0.52704
 O777 O 0.69941 0.25602 0.57214
 O778 O 0.70100 0.31372 0.56004
 O779 O 0.65921 0.21572 0.50380
 O780 O 0.66379 0.22515 0.44980
 O781 O 0.70291 0.17755 0.49730
 O782 O 0.70438 0.19108 0.44527
 O783 O 0.65766 0.25613 0.53475
 O784 O 0.66331 0.30758 0.53154
 O785 O 0.73544 0.21923 0.57103
 O786 O 0.78929 0.23442 0.56224
 O787 O 0.72834 0.34158 0.45624
 O788 O 0.67716 0.32654 0.46049
 O789 O 0.77172 0.26622 0.41664
 O790 O 0.76743 0.21120 0.42851
 O791 O 0.81186 0.30656 0.49117
 O792 O 0.80262 0.30138 0.54288
 Zr793 Zr 0.76890 0.30150 0.50952
 O794 O 0.74597 0.27224 0.53872
 Zr795 Zr 0.77166 0.24726 0.45910
 O796 O 0.74726 0.21670 0.48580
 Zr797 Zr 0.71421 0.29596 0.45889
 O798 O 0.68850 0.26805 0.48683
 Zr799 Zr 0.75553 0.22613 0.52993
 O800 O 0.78196 0.25565 0.50325
 Zr801 Zr 0.69974 0.27663 0.53055
 O802 O 0.72231 0.30766 0.50288
 Zr803 Zr 0.70019 0.22229 0.48029
 O804 O 0.72476 0.25030 0.45048
 O805 O 0.76057 0.29243 0.46578
 O806 O 0.70908 0.23051 0.52419
 C807 C 0.74961 0.35637 0.46917
 C808 C 0.82583 0.29188 0.47140
 C809 C 0.75477 0.28631 0.40415
 C810 C 0.72151 0.16499 0.51537
 C811 C 0.71400 0.23362 0.58361
 C812 C 0.64642 0.23190 0.52368
 H813 H 0.75144 0.27740 0.55910
 H814 H 0.66672 0.27155 0.48298
 H815 H 0.77236 0.30630 0.45300
 H816 H 0.75349 0.19581 0.48056
 H817 H 0.80940 0.20690 0.51962
 H818 H 0.80291 0.19820 0.46918
 H819 H 0.66571 0.32110 0.51429
 H820 H 0.67676 0.33903 0.44230
 H821 H 0.78961 0.21663 0.57582
 H822 H 0.81522 0.32017 0.54094
 H823 H 0.64991 0.20761 0.45326
 H824 H 0.67940 0.29834 0.41219
 H825 H 0.74401 0.34562 0.53801
 H826 H 0.71644 0.30933 0.57525
 H827 H 0.78432 0.21301 0.41449
 H828 H 0.68907 0.17455 0.44750
 O829 O 0.79516 0.84049 0.00955
 O830 O 0.79174 0.81952 0.05751
 O831 O 0.82720 0.76907 -0.04289
 O832 O 0.81332 0.71796 -0.04838
 O833 O 0.75428 0.82178 -0.06913
 O834 O 0.69859 0.81318 -0.06053
 O835 O 0.73780 0.67911 0.02061
 O836 O 0.78974 0.68201 0.01008
 O837 O 0.71640 0.74947 0.07486
 O838 O 0.72079 0.80324 0.07594
 O839 O 0.66562 0.73041 0.00054
 O840 O 0.67256 0.75231 -0.05147
 O841 O 0.70007 0.68957 -0.01212
 O842 O 0.70561 0.71106 -0.06246
 O843 O 0.67230 0.75988 0.04080
 O844 O 0.68977 0.81710 0.04029
 O845 O 0.74749 0.70967 0.06468
 O846 O 0.80138 0.71444 0.05117
 O847 O 0.75660 0.85157 -0.02226
 O848 O 0.70209 0.84379 -0.01742
 O849 O 0.78571 0.78242 -0.07988
 O850 O 0.76980 0.72810 -0.08067
 O851 O 0.83178 0.79604 -0.00062
 O852 O 0.82234 0.77821 0.04929
 Zr853 Zr 0.78928 0.79355 0.01866
 O854 O 0.76160 0.76341 0.04175
 Zr855 Zr 0.78146 0.75338 -0.04280
 O856 O 0.75249 0.72155 -0.02160
 Zr857 Zr 0.73382 0.80980 -0.02886
 O858 O 0.70340 0.78048 -0.00665
 Zr859 Zr 0.76344 0.71979 0.02289
 O860 O 0.79429 0.74924 0.00147
 Zr861 Zr 0.71650 0.77715 0.03731
 O862 O 0.74461 0.80918 0.01612
 Zr863 Zr 0.70707 0.73606 -0.02294
 O864 O 0.73562 0.76616 -0.04748
 O865 O 0.77855 0.79659 -0.02524
 O866 O 0.71841 0.73307 0.02098
 C867 C 0.78041 0.85883 -0.00734
 C868 C 0.84228 0.78576 -0.02449
 C869 C 0.77435 0.80894 -0.08517
 C870 C 0.71374 0.67175 0.00607
 C871 C 0.72991 0.72434 0.08149
 C872 C 0.65654 0.74152 0.02511
 H873 H 0.76874 0.76308 0.06229
 H874 H 0.68245 0.78812 -0.00866
 H875 H 0.79253 0.81116 -0.03476
 H876 H 0.75423 0.70114 -0.03057
 H877 H 0.80927 0.69052 0.00326
 H878 H 0.80225 0.69825 -0.04720
 H879 H 0.67168 0.81235 0.05217
 H880 H 0.70437 0.86139 -0.03104
 H881 H 0.79954 0.69426 0.06107
 H882 H 0.83870 0.79381 0.05069
 H883 H 0.65535 0.73770 -0.05057
 H884 H 0.70162 0.83225 -0.07201
 H885 H 0.77326 0.83217 0.05814
 H886 H 0.74126 0.79972 0.08412
 H887 H 0.78710 0.72936 -0.09427
 H888 H 0.68719 0.69799 -0.06239
 O889 O 0.99305 0.16734 0.20519
 O890 O 0.94257 0.17774 0.20864
 O891 O 1.03547 0.25132 0.17996
 O892 O 1.04446 0.29717 0.19768
 O893 O 1.07090 0.19406 0.25440
 O894 O 1.05687 0.19505 0.30433
 O895 O 0.95887 0.32235 0.26446
 O896 O 0.96419 0.32036 0.21545
 O897 O 0.91328 0.23923 0.28985
 O898 O 0.92074 0.18726 0.28175
 O899 O 0.98840 0.27280 0.33448
 O900 O 1.04318 0.25951 0.32815
 O901 O 0.99397 0.31593 0.30071
 O902 O 1.04853 0.30230 0.29580
 O903 O 0.95107 0.23723 0.32894
 O904 O 0.95913 0.18047 0.31287
 O905 O 0.91695 0.28261 0.26225
 O906 O 0.92884 0.28092 0.20683
 O907 O 1.02653 0.15855 0.24251
 O908 O 1.01474 0.16112 0.29572
 O909 O 1.07676 0.23534 0.22435
 O910 O 1.06771 0.29253 0.23646
 O911 O 0.99635 0.21818 0.17243
 O912 O 0.94194 0.22298 0.18413
 Zr913 Zr 0.97703 0.21120 0.21408
 O914 O 0.94835 0.23442 0.24270
 Zr915 Zr 1.03457 0.25943 0.22511
 O916 O 1.00680 0.28649 0.25164
 Zr917 Zr 1.02646 0.19860 0.26822
 O918 O 1.00119 0.22415 0.29820
 Zr919 Zr 0.96032 0.28077 0.24207
 O920 O 0.98839 0.25792 0.21202
 Zr921 Zr 0.95583 0.22018 0.28617
 O922 O 0.98072 0.19342 0.25697
 Zr923 Zr 1.01149 0.27120 0.29482
 O924 O 1.04053 0.24491 0.26838
 O925 O 1.02274 0.21378 0.22501
 O926 O 0.96575 0.26672 0.28501
 C927 C 1.01240 0.15070 0.21885
 C928 C 1.01811 0.23535 0.16333
 C929 C 1.08664 0.21073 0.23723
 C930 C 0.97377 0.33182 0.28690
 C931 C 0.90274 0.26434 0.27991
 C932 C 0.96493 0.25822 0.34343
 H933 H 0.92702 0.23142 0.23657
 H934 H 1.00462 0.21645 0.31836
 H935 H 1.03537 0.20264 0.21095
 H936 H 1.01302 0.30819 0.24956
 H937 H 0.97422 0.31384 0.19732
 H938 H 1.02589 0.30964 0.19701
 H939 H 0.94567 0.18303 0.32986
 H940 H 1.02930 0.14437 0.29252
 H941 H 0.91346 0.29665 0.21100
 H942 H 0.94378 0.21026 0.16640
 H943 H 1.04134 0.27438 0.34424
 H944 H 1.06848 0.17579 0.30289
 H945 H 0.94161 0.16584 0.22710
 H946 H 0.91228 0.18939 0.26178
 H947 H 1.08052 0.28338 0.25204
 H948 H 1.04650 0.31545 0.31319
 O949 O 0.77830 0.92312 0.74462
 O950 O 0.78702 0.93955 0.70038
 O951 O 0.82959 0.99766 0.79214
 O952 O 0.82519 1.04769 0.79035
 O953 O 0.75215 0.95882 0.82948
 O954 O 0.69920 0.97046 0.82217
 O955 O 0.75022 1.08997 0.72389
 O956 O 0.80060 1.07746 0.72429
 O957 O 0.70536 1.01445 0.68159
 O958 O 0.70912 0.96244 0.68581
 O959 O 0.67207 1.05114 0.75678
 O960 O 0.68186 1.03648 0.80856
 O961 O 0.71672 1.08887 0.76146
 O962 O 0.72316 1.07049 0.81291
 O963 O 0.66863 1.01524 0.72121
 O964 O 0.67631 0.95856 0.72673
 O965 O 0.74015 1.05306 0.68291
 O966 O 0.79587 1.04022 0.68696
 O967 O 0.74614 0.92048 0.78316
 O968 O 0.69398 0.93623 0.78277
 O969 O 0.78804 0.99632 0.83212
 O970 O 0.78417 1.05241 0.82331
 O971 O 0.82660 0.96404 0.75454
 O972 O 0.81406 0.97742 0.70117
 Zr973 Zr 0.78325 0.97005 0.73568
 O974 O 0.75566 0.99932 0.71062
 Zr975 Zr 0.78702 1.01814 0.79089
 O976 O 0.76110 1.05031 0.76737
 Zr977 Zr 0.73160 0.96622 0.78844
 O978 O 0.70316 0.99723 0.76626
 Zr979 Zr 0.76522 1.04467 0.72201
 O980 O 0.79499 1.01535 0.74566
 Zr981 Zr 0.71020 0.99276 0.72161
 O982 O 0.73723 0.96048 0.74325
 Zr983 Zr 0.71508 1.04271 0.77579
 O984 O 0.74127 1.01155 0.80103
 O985 O 0.77736 0.97285 0.78045
 O986 O 0.71973 1.03830 0.73098
 C987 C 0.76274 0.90814 0.76353
 C988 C 0.84057 0.97658 0.77616
 C989 C 0.77298 0.97375 0.84305
 C990 C 0.73197 1.10290 0.74150
 C991 C 0.71810 1.03821 0.67084
 C992 C 0.65790 1.03754 0.73585
 H993 H 0.75896 0.99581 0.68956
 H994 H 0.68180 0.99302 0.77131
 H995 H 0.78941 0.95742 0.79130
 H996 H 0.76767 1.07098 0.77347
 H997 H 0.81908 1.06619 0.73013
 H998 H 0.81860 1.06716 0.78127
 H999 H 0.66078 0.96176 0.71125
 H1000 H 0.69516 0.91952 0.79752
 H1001 H 0.79386 1.05865 0.67434
 H1002 H 0.82848 0.99349 0.70763
 H1003 H 0.66839 1.05452 0.80835
 H1004 H 0.69979 0.95201 0.83490
 H1005 H 0.76809 0.94150 0.68886
 H1006 H 0.71665 0.94254 0.69324
 H1007 H 0.80096 1.04932 0.83753
 H1008 H 0.70851 1.08756 0.81257
 O1009 O 0.78239 0.42255 0.23513
 O1010 O 0.77258 0.43438 0.18556
 O1011 O 0.82792 0.49894 0.26996
 O1012 O 0.82095 0.55022 0.26096
 O1013 O 0.75491 0.46470 0.31747
 O1014 O 0.70109 0.46726 0.31188
 O1015 O 0.73079 0.58288 0.20356
 O1016 O 0.78308 0.57748 0.20028
 O1017 O 0.69203 0.50182 0.16853
 O1018 O 0.69627 0.44931 0.17883
 O1019 O 0.66391 0.54109 0.24827
 O1020 O 0.68277 0.52994 0.29939
 O1021 O 0.70127 0.58110 0.24410
 O1022 O 0.71963 0.57009 0.29436
 O1023 O 0.65948 0.50577 0.21223
 O1024 O 0.67192 0.44774 0.22092
 O1025 O 0.72596 0.54092 0.16405
 O1026 O 0.78233 0.53628 0.16671
 O1027 O 0.75295 0.42140 0.27585
 O1028 O 0.69826 0.42975 0.27491
 O1029 O 0.78989 0.50294 0.31258
 O1030 O 0.78441 0.55684 0.29954
 O1031 O 0.82328 0.46390 0.23366
 O1032 O 0.80541 0.47529 0.18206
 Zr1033 Zr 0.77775 0.46727 0.21897
 O1034 O 0.74574 0.49307 0.19514
 Zr1035 Zr 0.78459 0.51986 0.26980
 O1036 O 0.75329 0.54837 0.24782
 Zr1037 Zr 0.73203 0.46454 0.27674
 O1038 O 0.69905 0.49116 0.25535
 Zr1039 Zr 0.75279 0.53986 0.20279
 O1040 O 0.78735 0.51407 0.22432
 Zr1041 Zr 0.70185 0.48419 0.21031
 O1042 O 0.73343 0.45551 0.23167
 Zr1043 Zr 0.70928 0.53751 0.26157
 O1044 O 0.74066 0.51097 0.28533
 O1045 O 0.77590 0.47388 0.26371
 O1046 O 0.70924 0.53063 0.21661
 C1047 C 0.77148 0.40922 0.25782
 C1048 C 0.83836 0.47689 0.25440
 C1049 C 0.77624 0.48206 0.32741
 C1050 C 0.71158 0.59468 0.22135
 C1051 C 0.70391 0.52418 0.15432
 C1052 C 0.64904 0.52743 0.22798
 H1053 H 0.74776 0.48840 0.17415
 H1054 H 0.67868 0.48585 0.26272
 H1055 H 0.78990 0.46096 0.27526
 H1056 H 0.75824 0.57008 0.25171
 H1057 H 0.80338 0.56941 0.20518
 H1058 H 0.81193 0.56983 0.25454
 H1059 H 0.65217 0.45177 0.21126
 H1060 H 0.70244 0.41427 0.29035
 H1061 H 0.77768 0.55320 0.15286
 H1062 H 0.82138 0.45947 0.18181
 H1063 H 0.66701 0.54593 0.30004
 H1064 H 0.70442 0.44978 0.32545
 H1065 H 0.75312 0.42370 0.18908
 H1066 H 0.71434 0.44972 0.16627
 H1067 H 0.80371 0.55641 0.31077
 H1068 H 0.70233 0.58426 0.29599
 O1069 O 0.57758 0.20074 0.74807
 O1070 O 0.57000 0.21025 0.79739
 O1071 O 0.49878 0.15477 0.71797
 O1072 O 0.44924 0.16186 0.72691
 O1073 O 0.53198 0.22786 0.66818
 O1074 O 0.52781 0.28259 0.67208
 O1075 O 0.42173 0.25085 0.78721
 O1076 O 0.42778 0.19831 0.79019
 O1077 O 0.50318 0.29188 0.81631
 O1078 O 0.55524 0.28752 0.80302
 O1079 O 0.45770 0.31921 0.73960
 O1080 O 0.46561 0.30190 0.68802
 O1081 O 0.41966 0.28018 0.74583
 O1082 O 0.42771 0.26334 0.69438
 O1083 O 0.49455 0.32403 0.77433
 O1084 O 0.55122 0.31430 0.76121
 O1085 O 0.46585 0.25653 0.82341
 O1086 O 0.47105 0.19921 0.82118
 O1087 O 0.57622 0.23074 0.70703
 O1088 O 0.56723 0.28637 0.70777
 O1089 O 0.49427 0.19264 0.67451
 O1090 O 0.44107 0.19962 0.68904
 O1091 O 0.53576 0.15939 0.75266
 O1092 O 0.52990 0.17830 0.80452
 Zr1093 Zr 0.53462 0.20549 0.76622
 O1094 O 0.51076 0.23760 0.79071
 Zr1095 Zr 0.47921 0.19856 0.71754
 O1096 O 0.45233 0.22933 0.74076
 Zr1097 Zr 0.53329 0.25173 0.70782
 O1098 O 0.50777 0.28480 0.72962
 Zr1099 Zr 0.46428 0.22944 0.78526
 O1100 O 0.48828 0.19515 0.76273
 Zr1101 Zr 0.51782 0.28207 0.77423
 O1102 O 0.54516 0.25040 0.75237
 Zr1103 Zr 0.46165 0.27386 0.72589
 O1104 O 0.48685 0.24293 0.70107
 O1105 O 0.52505 0.20733 0.72188
 O1106 O 0.47176 0.27356 0.77031
 C1107 C 0.58940 0.21192 0.72480
 C1108 C 0.52116 0.14420 0.73306
 C1109 C 0.51478 0.20596 0.65920
 C1110 C 0.40841 0.26981 0.76970
 C1111 C 0.48244 0.27935 0.83169
 C1112 C 0.47150 0.33396 0.75985
 H1113 H 0.51695 0.23561 0.81145
 H1114 H 0.51207 0.30552 0.72173
 H1115 H 0.53716 0.19296 0.71035
 H1116 H 0.43069 0.22406 0.73800
 H1117 H 0.43546 0.17806 0.78438
 H1118 H 0.43061 0.17089 0.73483
 H1119 H 0.54790 0.33343 0.77217
 H1120 H 0.58164 0.28227 0.69185
 H1121 H 0.45571 0.20392 0.83612
 H1122 H 0.54476 0.16144 0.80386
 H1123 H 0.44915 0.31718 0.68817
 H1124 H 0.54439 0.27943 0.65800
 H1125 H 0.57934 0.23058 0.79392
 H1126 H 0.55491 0.27018 0.81702
 H1127 H 0.44107 0.18062 0.67735
 H1128 H 0.41267 0.28006 0.69415
 O1129 O 0.25509 0.80680 0.44704
 O1130 O 0.20310 0.80356 0.46137
 O1131 O 0.30119 0.83743 0.52485
 O1132 O 0.30198 0.82394 0.57087
 O1133 O 0.33305 0.76247 0.47589
 O1134 O 0.31971 0.70738 0.47800
 O1135 O 0.22763 0.74521 0.59970
 O1136 O 0.23758 0.79957 0.59790
 O1137 O 0.17671 0.72308 0.52830
 O1138 O 0.17972 0.72751 0.47789
 O1139 O 0.25782 0.67430 0.55166
 O1140 O 0.31088 0.68489 0.53697
 O1141 O 0.26260 0.70809 0.59202
 O1142 O 0.31648 0.71833 0.57802
 O1143 O 0.21560 0.67976 0.52332
 O1144 O 0.21798 0.69729 0.46757
 O1145 O 0.18391 0.75462 0.56705
 O1146 O 0.19696 0.80910 0.56331
 O1147 O 0.28957 0.76913 0.43996
 O1148 O 0.27723 0.71451 0.44539
 O1149 O 0.33959 0.79435 0.51465
 O1150 O 0.33392 0.77939 0.56638
 O1151 O 0.26184 0.84314 0.49276
 O1152 O 0.20673 0.83257 0.50205
 Zr1153 Zr 0.23996 0.79994 0.49104
 O1154 O 0.21298 0.77071 0.51726
 Zr1155 Zr 0.29845 0.79137 0.53696
 O1156 O 0.27387 0.76228 0.56467
 Zr1157 Zr 0.28905 0.74444 0.48003
 O1158 O 0.26425 0.71319 0.50602
 Zr1159 Zr 0.22774 0.77216 0.56107
 O1160 O 0.25264 0.80394 0.53553
 Zr1161 Zr 0.21829 0.72480 0.50547
 O1162 O 0.24257 0.75445 0.47676
 Zr1163 Zr 0.27818 0.71739 0.54971
 O1164 O 0.30519 0.74617 0.52344
 O1165 O 0.28525 0.78940 0.49333
 O1166 O 0.23206 0.72692 0.54866
 C1167 C 0.27475 0.79284 0.43112
 C1168 C 0.28535 0.85317 0.50671
 C1169 C 0.34853 0.78185 0.49108
 C1170 C 0.24235 0.72097 0.60748
 C1171 C 0.16774 0.73607 0.55193
 C1172 C 0.23300 0.66429 0.54070
 H1173 H 0.19163 0.77717 0.51546
 H1174 H 0.26722 0.69213 0.49886
 H1175 H 0.29729 0.80360 0.48113
 H1176 H 0.28119 0.76403 0.58508
 H1177 H 0.24452 0.81963 0.59020
 H1178 H 0.29696 0.81338 0.58941
 H1179 H 0.20653 0.67826 0.47199
 H1180 H 0.29283 0.71614 0.43004
 H1181 H 0.18574 0.80721 0.58190
 H1182 H 0.20868 0.85036 0.48859
 H1183 H 0.31117 0.66800 0.55154
 H1184 H 0.33288 0.71052 0.46081
 H1185 H 0.20294 0.78469 0.44956
 H1186 H 0.17449 0.74940 0.47623
 H1187 H 0.34904 0.79625 0.56640
 H1188 H 0.31583 0.69986 0.59070
 O1189 O 0.26855 0.28097 0.93021
 O1190 O 0.21523 0.28013 0.93870
 O1191 O 0.30414 0.32255 1.00830
 O1192 O 0.29492 0.31353 1.05675
 O1193 O 0.34424 0.24335 0.97473
 O1194 O 0.33120 0.18873 0.98194
 O1195 O 0.22203 0.23657 1.08323
 O1196 O 0.22833 0.29020 1.07592
 O1197 O 0.18195 0.20343 1.00592
 O1198 O 0.19187 0.20924 0.95472
 O1199 O 0.25224 0.16096 1.04377
 O1200 O 0.30919 0.16788 1.03605
 O1201 O 0.25701 0.19853 1.08248
 O1202 O 0.31150 0.20480 1.07399
 O1203 O 0.22027 0.16293 1.00457
 O1204 O 0.23194 0.17934 0.95092
 O1205 O 0.18269 0.23704 1.04362
 O1206 O 0.19234 0.29271 1.03639
 O1207 O 0.30455 0.24380 0.93269
 O1208 O 0.29633 0.19057 0.94158
 O1209 O 0.34359 0.27847 1.01120
 O1210 O 0.32933 0.27091 1.06194
 O1211 O 0.26998 0.32386 0.97075
 O1212 O 0.21495 0.31469 0.97595
 Zr1213 Zr 0.24855 0.28053 0.97225
 O1214 O 0.21770 0.25352 0.99636
 Zr1215 Zr 0.29903 0.27767 1.02623
 O1216 O 0.27082 0.24941 1.05189
 Zr1217 Zr 0.30000 0.22471 0.97423
 O1218 O 0.27058 0.19533 0.99703
 Zr1219 Zr 0.22553 0.25818 1.04156
 O1220 O 0.25370 0.28868 1.01747
 Zr1221 Zr 0.22555 0.20729 0.98797
 O1222 O 0.25477 0.23429 0.96226
 Zr1223 Zr 0.27683 0.20292 1.04163
 O1224 O 0.30800 0.23097 1.01886
 O1225 O 0.29333 0.27094 0.98185
 O1226 O 0.23175 0.21229 1.03270
 C1227 C 0.28996 0.26482 0.91915
 C1228 C 0.29102 0.33619 0.98647
 C1229 C 0.35678 0.26411 0.99072
 C1230 C 0.23617 0.21360 1.09489
 C1231 C 0.16985 0.21618 1.02812
 C1232 C 0.23132 0.14953 1.02713
 H1233 H 0.19672 0.25945 0.99137
 H1234 H 0.27461 0.17381 0.99184
 H1235 H 0.30718 0.28375 0.97004
 H1236 H 0.27522 0.25315 1.07279
 H1237 H 0.23513 0.30978 1.06706
 H1238 H 0.28721 0.30440 1.07509
 H1239 H 0.21926 0.16067 0.95302
 H1240 H 0.31483 0.19104 0.92949
 H1241 H 0.17826 0.29102 1.05308
 H1242 H 0.21779 0.33000 0.96008
 H1243 H 0.30506 0.15153 1.05063
 H1244 H 0.34757 0.19015 0.96733
 H1245 H 0.21600 0.25973 0.92954
 H1246 H 0.18123 0.22894 0.95633
 H1247 H 0.34339 0.28867 1.06273
 H1248 H 0.30923 0.18696 1.08732
 N1249 N 0.28809 0.35031 0.78344
 N1250 N 0.26460 0.36475 0.79083
 N1251 N 0.28605 -0.14533 0.29698
 N1252 N 0.27103 -0.13149 0.27837
 N1253 N 0.77764 0.85888 0.77630
 N1254 N 0.76203 0.87567 0.76074
 N1255 N 0.47441 0.89041 0.29361
 N1256 N 0.46380 0.87745 0.27108
 N1257 N -0.04968 0.88556 0.79537
 N1258 N -0.02630 0.87024 0.80180
 N1259 N -0.03331 -0.13875 -0.03285
 N1260 N -0.02170 -0.12195 -0.01440
 N1261 N -0.05300 0.37409 0.45406
 N1262 N -0.03049 0.38985 0.44514
 N1263 N 0.47609 -0.15680 0.45056
 N1264 N 0.49801 -0.14443 0.46251
 N1265 N 0.44494 0.35901 -0.05496
 N1266 N 0.43694 0.38555 -0.05090
 N1267 N 0.77914 0.40109 0.46526
 N1268 N 0.75589 0.38592 0.45761
 N1269 N 0.78347 0.90455 -0.03351
 N1270 N 0.79348 0.88809 -0.01262
 N1271 N 0.78516 0.28623 0.36186
 N1272 N 0.76217 0.29619 0.37530
 N1273 N 0.79578 0.82010 -0.13183
 N1274 N 0.78759 0.82792 -0.10731
 N1275 N 0.28611 0.46166 0.87974
 N1276 N 0.26186 0.45269 0.86725
 N1277 N 0.30689 -0.05717 0.39002
 N1278 N 0.30078 -0.06372 0.36459
 N1279 N -0.02375 -0.03394 -0.13719
 N1280 N -0.00336 -0.02191 -0.12266
 N1281 N -0.03549 0.45989 0.35755
 N1282 N -0.04158 0.48540 0.36919
 N1283 N 0.47990 -0.03178 0.36723
 N1284 N 0.50140 -0.04600 0.37983
 N1285 N 0.45671 0.46363 -0.14746
 N1286 N 0.46836 0.48383 -0.13240
 N1287 N 0.44404 0.78388 0.36722
 N1288 N 0.46865 0.78945 0.35426
 N1289 N -0.02353 0.79460 0.88583
 N1290 N -0.03051 0.76959 0.87351
 N1291 N 0.37347 0.79227 0.30315
 N1292 N 0.38284 0.80118 0.27804
 N1293 N -0.13248 0.80047 0.78921
 N1294 N -0.11738 0.77755 0.79837
 N1295 N 0.87235 0.29056 0.44603
 N1296 N 0.85543 0.30292 0.46475
 N1297 N 0.88546 0.79043 -0.05480
 N1298 N 0.87214 0.79589 -0.03104
 N1299 N -0.12609 -0.03175 -0.03177
 N1300 N -0.10721 -0.01420 -0.04436
 N1301 N -0.14028 0.46177 0.43455
 N1302 N -0.11280 0.46188 0.43139
 N1303 N 0.38239 -0.05167 0.46575
 N1304 N 0.40284 -0.03886 0.45054
 N1305 N 0.35194 0.47317 -0.03921
 N1306 N 0.36851 0.49253 -0.02781
 N1307 N 0.37458 0.43719 0.78650
 N1308 N 0.35836 0.45971 0.79366
 N1309 N 0.39259 -0.03193 0.30373
 N1310 N 0.37421 -0.04441 0.28589
 N1311 N 0.11007 0.54317 0.70354
 N1312 N 0.12396 0.51914 0.69603
 N1313 N 0.11860 0.02817 0.21358
 N1314 N 0.13076 0.03758 0.23725
 N1315 N 0.63680 0.72668 0.20070
 N1316 N 0.61818 0.71251 0.21677
 N1317 N 0.13975 0.71086 0.72746
 N1318 N 0.12526 0.73320 0.71660
 N1319 N 0.60373 0.19899 0.52791
 N1320 N 0.61838 0.22254 0.53581
 N1321 N 0.61204 0.71027 0.02739
 N1322 N 0.62769 0.73260 0.03704
 N1323 N 0.15602 0.02107 0.03983
 N1324 N 0.14111 0.00503 0.02303
 N1325 N 0.12449 0.53870 0.54753
 N1326 N 0.10878 0.55158 0.52752
 N1327 N 0.65218 0.02737 0.55510
 N1328 N 0.64068 0.00203 0.55053
 N1329 N 0.63197 0.54546 0.02454
 N1330 N 0.61871 0.52059 0.03186
 N1331 N 0.03823 0.02849 0.14235
 N1332 N 0.02334 0.01434 0.12395
 N1333 N 0.03706 0.53345 0.62301
 N1334 N 0.01269 0.54065 0.60986
 N1335 N 0.53358 0.01098 0.64256
 N1336 N 0.52359 -0.00914 0.62639
 N1337 N 0.52864 0.54305 0.12235
 N1338 N 0.53796 0.51996 0.10821
 N1339 N 0.21258 0.53998 0.61518
 N1340 N 0.20571 0.51448 0.62702
 N1341 N 0.20219 0.03002 0.13341
 N1342 N 0.22274 0.04168 0.14937
 N1343 N 0.71607 0.20201 0.62640
 N1344 N 0.70428 0.22381 0.61172
 N1345 N 0.71185 0.72779 0.12850
 N1346 N 0.72501 0.71184 0.10956
 N1347 N 0.53004 0.71124 0.10376
 N1348 N 0.54073 0.73243 0.11957
 N1349 N 0.03457 0.71074 0.61992
 N1350 N 0.04412 0.73260 0.63587
 N1351 N 0.53621 0.61496 0.20529
 N1352 N 0.51601 0.63268 0.19511
 N1353 N 0.03009 0.61991 0.69060
 N1354 N 0.04203 0.63575 0.71085
 N1355 N 0.04854 0.13532 0.05765
 N1356 N 0.06102 0.12061 0.03719
 N1357 N 0.03497 0.64567 0.53252
 N1358 N 0.01048 0.63174 0.53858
 N1359 N 0.53106 0.11889 0.54956
 N1360 N 0.54866 0.10138 0.53599
 N1361 N 0.53372 0.63086 0.03463
 N1362 N 0.54742 0.61351 0.01722
 N1363 N 0.70912 0.11648 0.53403
 N1364 N 0.72217 0.13236 0.51570
 N1365 N 0.71017 0.62620 0.03289
 N1366 N 0.70023 0.64249 0.01180
 N1367 N 0.20526 0.62613 0.71684
 N1368 N 0.22227 0.60845 0.70273
 N1369 N 0.21862 0.13660 0.21550
 N1370 N 0.21290 0.12323 0.23974
 N1371 N 0.71836 1.14917 0.71981
 N1372 N 0.73021 1.13538 0.74042
 N1373 N 0.71092 0.64111 0.19503
 N1374 N 0.70051 0.62484 0.21574
 N1375 N 0.52456 0.10030 0.70323
 N1376 N 0.53320 0.11511 0.72567
 N1377 N 1.04240 0.10739 0.21560
 N1378 N 1.02025 0.12259 0.20559
 N1379 N 0.19956 0.62158 0.54188
 N1380 N 0.22414 0.63434 0.54986
 N1381 N 0.22224 0.10785 1.05900
 N1382 N 0.21808 0.12060 1.03431
 N1383 N 0.21409 0.71669 0.65040
 N1384 N 0.23484 0.70622 0.63442
 N1385 N 0.20857 0.21585 1.13885
 N1386 N 0.22840 0.20309 1.12339
 N1387 N 0.70385 0.55123 0.10984
 N1388 N 0.69173 0.53069 0.12579
 N1389 N 0.71179 1.07204 0.62949
 N1390 N 0.70614 1.04747 0.64342
 N1391 N 0.53822 0.20678 0.61328
 N1392 N 0.51936 0.19453 0.63067
 N1393 N 1.03834 0.22324 0.11784
 N1394 N 1.02147 0.23913 0.13254
 N1395 N 0.63131 0.20783 0.69386
 N1396 N 0.61873 0.20136 0.71795
 N1397 N 1.13370 0.21338 0.21337
 N1398 N 1.11643 0.19975 0.23126
 N1399 N 0.11978 0.71268 0.54804
 N1400 N 0.13791 0.72955 0.56249
 N1401 N 0.12734 0.21611 1.05895
 N1402 N 0.14076 0.20529 1.03685
 N1403 N 0.60492 0.52900 0.19919
 N1404 N 0.61976 0.53879 0.22115
 N1405 N 0.61485 1.03413 0.70686
 N1406 N 0.62840 1.04781 0.72769
 N1407 N 0.88204 0.47088 0.28497
 N1408 N 0.86703 0.46339 0.26216
 N1409 N 0.88393 0.97290 0.80652
 N1410 N 0.86914 0.96427 0.78404
 N1411 N 0.36586 0.27316 0.80044
 N1412 N 0.37938 0.28109 0.77718
 N1413 N 0.85911 0.29558 0.28199
 N1414 N 0.87362 0.27219 0.29048
 N1415 N 0.38256 0.78591 0.45337
 N1416 N 0.37643 0.79226 0.47958
 N1417 N 0.40081 0.26376 0.96232
 N1418 N 0.38604 0.27496 0.98325
 N1419 N 0.77248 0.46207 0.37573
 N1420 N 0.78651 0.47789 0.35669
 N1421 N 0.80091 0.97675 0.88712
 N1422 N 0.78005 0.96407 0.87209
 N1423 N 0.30344 0.79553 0.38711
 N1424 N 0.28126 0.80519 0.40225
 N1425 N 0.28628 0.28889 0.87268
 N1426 N 0.29941 0.27047 0.89006
 N1427 N 0.46261 0.27657 0.87865
 N1428 N 0.47760 0.29172 0.85993
 N1429 N 0.96107 0.29139 0.38327
 N1430 N 0.95173 0.26754 0.37012
 N1431 N 0.46630 0.37573 0.79157
 N1432 N 0.45828 0.36195 0.76839
 N1433 N 0.94772 0.37914 0.28526
 N1434 N 0.96755 0.36196 0.29737
 N1435 N 0.28588 0.89770 0.47794
 N1436 N 0.29734 0.88227 0.49881
 N1437 N 0.29082 0.37981 0.95546
 N1438 N 0.30139 0.36641 0.97826
 N1439 N 0.77388 0.36526 0.28709
 N1440 N 0.78274 0.37971 0.26456
   
