data_POSCAR
  _audit_creation_date              2014-09-24
  _audit_creation_method            'ToBaCCo'
  _symmetry_space_group_name_H-M    'P1'
  _symmetry_Int_Tables_number       1
  _symmetry_cell_setting            triclinic
  loop_
  _symmetry_equiv_pos_as_xyz
 x,y,z
_cell_length_a 59.7231
_cell_length_b 59.6552
_cell_length_c 59.6927
_cell_angle_alpha 90.033100
_cell_angle_beta 90.077000
_cell_angle_gamma 89.999600
loop_
  _atom_site_label
  _atom_site_type_symbol
  _atom_site_fract_x
  _atom_site_fract_y
  _atom_site_fract_z
C1 C 0.30466 0.44656 0.91772
 C2 C 0.32404 0.45594 0.92708
 C3 C 0.33358 0.44650 0.94636
 C4 C 0.32362 0.42770 0.95633
 C5 C 0.30424 0.41832 0.94698
 C6 C 0.29474 0.42779 0.92771
 H7 H 0.33196 0.47018 0.91902
 H8 H 0.33123 0.42002 0.97095
 H9 H 0.28004 0.42020 0.92017
 C10 C 0.44701 0.83312 0.44673
 C11 C 0.42820 0.82310 0.45658
 C12 C 0.41872 0.80386 0.44699
 C13 C 0.42811 0.79456 0.42760
 C14 C 0.44690 0.80453 0.41772
 C15 C 0.45637 0.82377 0.42731
 H16 H 0.42058 0.83056 0.47130
 H17 H 0.42046 0.77998 0.41989
 H18 H 0.47063 0.83173 0.41936
 C19 C 0.94729 0.92028 0.80254
 C20 C 0.95715 0.92997 0.82153
 C21 C 0.94748 0.94894 0.83146
 C22 C 0.92797 0.95827 0.82227
 C23 C 0.91810 0.94859 0.80327
 C24 C 0.92781 0.92963 0.79339
 H25 H 0.97192 0.92234 0.82891
 H26 H 0.92011 0.97262 0.83021
 H27 H 0.91986 0.92181 0.77903
 C28 C 0.44748 -0.08141 0.30279
 C29 C 0.45689 -0.07216 0.32221
 C30 C 0.44744 -0.05296 0.33187
 C31 C 0.42862 -0.04296 0.32202
 C32 C 0.41920 -0.05220 0.30259
 C33 C 0.42868 -0.07139 0.29295
 H34 H 0.47112 -0.08022 0.33013
 H35 H 0.42095 -0.02843 0.32981
 H36 H 0.42105 -0.07889 0.27825
 C37 C 0.80299 0.30251 0.33126
 C38 C 0.82233 0.29312 0.32188
 C39 C 0.83226 0.30304 0.30309
 C40 C 0.82278 0.32232 0.29362
 C41 C 0.80344 0.33173 0.30298
 C42 C 0.79353 0.32179 0.32177
 H43 H 0.82998 0.27852 0.32955
 H44 H 0.83076 0.33030 0.27939
 H45 H 0.77888 0.32939 0.32936
 C46 C -0.19814 0.83269 0.80296
 C47 C -0.20792 0.82297 0.82198
 C48 C -0.19867 0.80350 0.83136
 C49 C -0.17968 0.79370 0.82162
 C50 C -0.16989 0.80338 0.80263
 C51 C -0.17915 0.82283 0.79328
 H52 H -0.22231 0.83086 0.82979
 H53 H -0.17215 0.77895 0.82914
 H54 H -0.17122 0.83058 0.77889
 C55 C 0.94721 0.33120 0.44727
 C56 C 0.92847 0.32105 0.45706
 C57 C 0.91924 0.30167 0.44752
 C58 C 0.92884 0.29237 0.42824
 C59 C 0.94758 0.30250 0.41842
 C60 C 0.95679 0.32189 0.42798
 H61 H 0.92071 0.32857 0.47167
 H62 H 0.92137 0.27770 0.42053
 H63 H 0.97096 0.33003 0.42008
 C64 C 0.44638 0.44579 0.83342
 C65 C 0.42723 0.45549 0.82387
 C66 C 0.41752 0.44599 0.80471
 C67 C 0.42702 0.42682 0.79502
 C68 C 0.44616 0.41710 0.80453
 C69 C 0.45586 0.42661 0.82369
 H70 H 0.41956 0.47005 0.83161
 H71 H 0.41923 0.41918 0.78049
 H72 H 0.47039 0.41876 0.83130
 C73 C 0.80111 0.92036 0.94835
 C74 C 0.82012 0.93018 0.95800
 C75 C 0.82988 0.94909 0.94813
 C76 C 0.82054 0.95826 0.92864
 C77 C 0.80153 0.94846 0.91896
 C78 C 0.79179 0.92955 0.92886
 H79 H 0.82771 0.92270 0.97273
 H80 H 0.82844 0.97255 0.92066
 H81 H 0.77743 0.92160 0.92105
 C82 C 0.30234 0.83104 0.30158
 C83 C 0.29248 0.82139 0.32057
 C84 C 0.30213 0.80244 0.33052
 C85 C 0.32160 0.79305 0.32141
 C86 C 0.33149 0.80264 0.30242
 C87 C 0.32182 0.82160 0.29248
 H88 H 0.27773 0.82897 0.32801
 H89 H 0.32938 0.77871 0.32943
 H90 H 0.32981 0.82932 0.27811
 C91 C 0.80415 0.41805 0.44719
 C92 C 0.82351 0.42751 0.45653
 C93 C 0.83342 0.44632 0.44653
 C94 C 0.82385 0.45571 0.42723
 C95 C 0.80449 0.44625 0.41788
 C96 C 0.79463 0.42746 0.42790
 H97 H 0.83113 0.41988 0.47116
 H98 H 0.83173 0.46996 0.41916
 H99 H 0.77995 0.41982 0.42037
 C100 C 0.94847 0.83110 -0.05083
 C101 C 0.92929 0.82139 -0.04140
 C102 C 0.91980 0.80222 -0.05110
 C103 C 0.92956 0.79267 -0.07018
 C104 C 0.94872 0.80232 -0.07964
 C105 C 0.95821 0.82149 -0.06993
 H106 H 0.92136 0.82910 -0.02697
 H107 H 0.92186 0.77819 -0.07805
 H108 H 0.97270 0.82928 -0.07764
 C109 C 0.30348 0.33183 0.80261
 C110 C 0.29341 0.32198 0.82137
 C111 C 0.30269 0.30266 0.83094
 C112 C 0.32200 0.29311 0.82168
 C113 C 0.33211 0.30292 0.80292
 C114 C 0.32280 0.32225 0.79336
 H115 H 0.27878 0.32969 0.82887
 H116 H 0.32950 0.27846 0.82941
 H117 H 0.33090 0.33016 0.77916
 C118 C 0.16982 0.55202 0.55139
 C119 C 0.17918 0.57144 0.54211
 C120 C 0.19818 0.58117 0.55189
 C121 C 0.20789 0.57139 0.57090
 C122 C 0.19855 0.55197 0.58020
 C123 C 0.17956 0.54226 0.57040
 H124 H 0.17132 0.57932 0.52774
 H125 H 0.22225 0.57924 0.57881
 H126 H 0.17197 0.52758 0.57794
 C127 C 0.58104 0.69786 0.05168
 C128 C 0.57138 0.70770 0.07068
 C129 C 0.55200 0.69844 0.08011
 C130 C 0.54221 0.67940 0.07045
 C131 C 0.55184 0.66954 0.05146
 C132 C 0.57122 0.67881 0.04205
 H133 H 0.57929 0.72209 0.07848
 H134 H 0.52756 0.67188 0.07808
 H135 H 0.57900 0.67086 0.02769
 C136 C 0.69785 0.19724 0.66886
 C137 C 0.70757 0.17815 0.67848
 C138 C 0.69828 0.16869 0.69785
 C139 C 0.67931 0.17845 0.70766
 C140 C 0.66958 0.19754 0.69805
 C141 C 0.67889 0.20695 0.67868
 H142 H 0.72191 0.17034 0.67052
 H143 H 0.67172 0.17085 0.72231
 H144 H 0.67102 0.22138 0.67092
 C145 C 1.08211 0.05274 0.19587
 C146 C 1.07279 0.04331 0.17649
 C147 C 1.05354 0.05273 0.16689
 C148 C 1.04356 0.07156 0.17679
 C149 C 1.05287 0.08100 0.19618
 C150 C 1.07211 0.07156 0.20573
 H151 H 1.08086 0.02905 0.16860
 H152 H 1.02896 0.07923 0.16913
 H153 H 1.07963 0.07919 0.22042
 C154 C 0.05328 0.16805 1.05395
 C155 C 0.04352 0.17806 1.07280
 C156 C 0.05308 0.19738 1.08219
 C157 C 0.07236 0.20672 1.07260
 C158 C 0.08212 0.19672 1.05375
 C159 C 0.07254 0.17742 1.04441
 H160 H 0.02891 0.17047 1.08046
 H161 H 0.08012 0.22136 1.08012
 H162 H 0.08039 0.16938 1.03013
 C163 C 0.16718 0.69717 0.69652
 C164 C 0.17726 0.67841 0.70640
 C165 C 0.19661 0.66910 0.69697
 C166 C 0.20595 0.67864 0.67768
 C167 C 0.19591 0.69740 0.66777
 C168 C 0.17655 0.70669 0.67722
 H169 H 0.16972 0.67071 0.72102
 H170 H 0.22063 0.67112 0.67007
 H171 H 0.16848 0.72090 0.66927
 C172 C 1.19723 0.16774 0.19641
 C173 C 1.20656 0.17731 0.17713
 C174 C 1.19717 0.19677 0.16794
 C175 C 1.17853 0.20672 0.17811
 C176 C 1.16919 0.19717 0.19739
 C177 C 1.17859 0.17771 0.20656
 H178 H 1.22066 0.16930 0.16896
 H179 H 1.17091 0.22146 0.17067
 H180 H 1.17102 0.16999 0.22115
 C181 C 0.66848 1.05286 0.55169
 C182 C 0.67778 1.07242 0.54258
 C183 C 0.69682 1.08210 0.55240
 C184 C 0.70660 1.07212 0.57129
 C185 C 0.69733 1.05258 0.58041
 C186 C 0.67832 1.04294 0.57058
 H187 H 0.66988 1.08041 0.52827
 H188 H 0.72101 1.07984 0.57927
 H189 H 0.67085 1.02812 0.57802
 C190 C 0.55150 0.55090 0.17013
 C191 C 0.57064 0.54143 0.17988
 C192 C 0.58011 0.55113 0.19906
 C193 C 0.57035 0.57025 0.20856
 C194 C 0.55121 0.57974 0.19884
 C195 C 0.54176 0.57002 0.17966
 H196 H 0.57854 0.52699 0.17217
 H197 H 0.57803 0.57812 0.22304
 H198 H 0.52731 0.57771 0.17177
 C199 C 0.66932 0.69817 0.19749
 C200 C 0.67838 0.70742 0.17792
 C201 C 0.69733 0.69773 0.16804
 C202 C 0.70727 0.67883 0.17781
 C203 C 0.69822 0.66956 0.19737
 C204 C 0.67929 0.67928 0.20723
 H205 H 0.67035 0.72171 0.17007
 H206 H 0.72159 0.67098 0.16987
 H207 H 0.67194 0.67176 0.22203
 C208 C 0.16656 0.05335 1.05324
 C209 C 0.17622 0.07254 1.04375
 C210 C 0.19542 0.08203 1.05337
 C211 C 0.20503 0.07227 1.07243
 C212 C 0.19542 0.05309 1.08194
 C213 C 0.17622 0.04361 1.07232
 H214 H 0.16852 0.08042 1.02928
 H215 H 0.21960 0.07990 1.08017
 H216 H 0.16852 0.02905 1.08001
 C217 C 0.58103 0.19834 0.55148
 C218 C 0.57132 0.20831 0.57038
 C219 C 0.55183 0.19919 0.57971
 C220 C 0.54199 0.18018 0.57006
 C221 C 0.55169 0.17020 0.55118
 C222 C 0.57117 0.17933 0.54185
 H223 H 0.57928 0.22266 0.57820
 H224 H 0.52727 0.17274 0.57766
 H225 H 0.57902 0.17125 0.52760
 C226 C 0.08066 0.55280 0.69868
 C227 C 0.07117 0.57220 0.70791
 C228 C 0.05212 0.58179 0.69808
 C229 C 0.04251 0.57190 0.67906
 C230 C 0.05199 0.55250 0.66981
 C231 C 0.07102 0.54294 0.67967
 H232 H 0.07894 0.58015 0.72229
 H233 H 0.02811 0.57962 0.67112
 H234 H 0.07870 0.52826 0.67218
 C235 C 0.66990 0.55219 0.05152
 C236 C 0.67920 0.57167 0.04230
 C237 C 0.69815 0.58145 0.05213
 C238 C 0.70786 0.57167 0.07114
 C239 C 0.69858 0.55218 0.08038
 C240 C 0.67964 0.54243 0.07052
 H241 H 0.67135 0.57954 0.02793
 H242 H 0.72219 0.57954 0.07909
 H243 H 0.67210 0.52769 0.07801
 C244 C 0.05357 0.69712 0.58258
 C245 C 0.07292 0.70637 0.57309
 C246 C 0.08230 0.69677 0.55383
 C247 C 0.07224 0.67795 0.54402
 C248 C 0.05289 0.66867 0.55348
 C249 C 0.04354 0.67830 0.57273
 H250 H 0.08098 0.72064 0.58098
 H251 H 0.07978 0.67019 0.52942
 H252 H 0.02887 0.67081 0.58037
 C253 C 0.55092 1.05154 0.66934
 C254 C 0.54132 1.07081 0.67877
 C255 C 0.55085 1.08058 0.69792
 C256 C 0.56994 1.07097 0.70769
 C257 C 0.57955 1.05172 0.69828
 C258 C 0.57000 1.04198 0.67916
 H259 H 0.52688 1.07855 0.67086
 H260 H 0.57771 1.07880 0.72215
 H261 H 0.57782 1.02742 0.67159
 C262 C 0.44717 0.33119 0.94695
 C263 C 0.45663 0.32184 0.92761
 C264 C 0.44729 0.30251 0.91808
 C265 C 0.42855 0.29246 0.92796
 C266 C 0.41907 0.30178 0.94729
 C267 C 0.42842 0.32111 0.95681
 H268 H 0.47081 0.32993 0.91967
 H269 H 0.42098 0.27782 0.92027
 H270 H 0.42075 0.32866 0.97145
 C271 C 0.94635 0.44578 0.33380
 C272 C 0.92721 0.45552 0.32426
 C273 C 0.91750 0.44607 0.30509
 C274 C 0.92697 0.42691 0.29537
 C275 C 0.94608 0.41714 0.30485
 C276 C 0.95580 0.42660 0.32403
 H277 H 0.91955 0.47007 0.33204
 H278 H 0.91916 0.41931 0.28081
 H279 H 0.97032 0.41872 0.33163
 C280 C 0.30221 0.94851 0.41943
 C281 C 0.32170 0.95784 0.42863
 C282 C 0.33150 0.94822 0.44767
 C283 C 0.32172 0.92933 0.45759
 C284 C 0.30223 0.91999 0.44841
 C285 C 0.29246 0.92963 0.42937
 H286 H 0.32958 0.97210 0.42060
 H287 H 0.32961 0.92153 0.47198
 H288 H 0.27772 0.92204 0.42190
 O289 O 0.19075 0.52944 0.74906
 O290 O 0.19818 0.52628 0.78737
 O291 O 0.24872 0.56004 0.72140
 O292 O 0.28877 0.55122 0.72254
 O293 O 0.22164 0.50164 0.69039
 O294 O 0.22317 0.46249 0.69858
 O295 O 0.30886 0.49884 0.77955
 O296 O 0.30345 0.53647 0.77492
 O297 O 0.25229 0.47130 0.80860
 O298 O 0.21186 0.47291 0.80094
 O299 O 0.27913 0.44160 0.75155
 O300 O 0.27753 0.44976 0.71114
 O301 O 0.30889 0.47196 0.75238
 O302 O 0.30092 0.47411 0.71115
 O303 O 0.25219 0.44142 0.77847
 O304 O 0.21099 0.45001 0.77614
 O305 O 0.27944 0.49809 0.80858
 O306 O 0.27231 0.53877 0.80095
 O307 O 0.19048 0.50210 0.72228
 O308 O 0.19879 0.46234 0.72389
 O309 O 0.24874 0.52853 0.69024
 O310 O 0.28818 0.52650 0.69850
 O311 O 0.22187 0.56011 0.74848
 O312 O 0.22726 0.55117 0.78884
 Zr313 Zr 0.22331 0.52768 0.76241
 O314 O 0.24288 0.50751 0.78376
 Zr315 Zr 0.26244 0.52751 0.72275
 O316 O 0.28379 0.50783 0.74272
 Zr317 Zr 0.22299 0.48819 0.72297
 O318 O 0.24291 0.46654 0.74250
 Zr319 Zr 0.27685 0.51307 0.77678
 O320 O 0.25739 0.53517 0.75687
 Zr321 Zr 0.23759 0.47347 0.77660
 O322 O 0.21588 0.49353 0.75704
 Zr323 Zr 0.27697 0.47375 0.73727
 O324 O 0.25706 0.49339 0.71541
 O325 O 0.22864 0.52204 0.72847
 O326 O 0.27157 0.47896 0.77130
 C327 C 0.18117 0.51793 0.73356
 C328 C 0.23310 0.56951 0.73274
 C329 C 0.23304 0.51719 0.68086
 C330 C 0.31808 0.48282 0.76856
 C331 C 0.26846 0.48209 0.81780
 C332 C 0.26821 0.43225 0.76749
 H333 H 0.23941 0.51119 0.79953
 H334 H 0.23926 0.45083 0.73872
 H335 H 0.21904 0.53155 0.71888
 H336 H 0.29952 0.51172 0.73933
 H337 H 0.29676 0.55098 0.77053
 H338 H 0.28671 0.56094 0.73581
 H339 H 0.21347 0.43972 0.76339
 H340 H 0.19130 0.46344 0.73863
 H341 H 0.28509 0.53812 0.81154
 H342 H 0.21534 0.56270 0.78756
 H343 H 0.26383 0.44055 0.71243
 H344 H 0.23817 0.46282 0.69156
 H345 H 0.19179 0.51098 0.78687
 H346 H 0.21326 0.48666 0.81010
 H347 H 0.28722 0.51163 0.69119
 H348 H 0.31088 0.48714 0.71358
 O349 O 0.30954 -0.00160 0.27858
 O350 O 0.30214 0.03671 0.27529
 O351 O 0.25151 -0.02917 0.30921
 O352 O 0.21154 -0.02843 0.30026
 O353 O 0.27878 -0.06038 0.25091
 O354 O 0.27710 -0.05233 0.21176
 O355 O 0.19141 0.02862 0.24787
 O356 O 0.19685 0.02416 0.28544
 O357 O 0.24811 0.05781 0.22039
 O358 O 0.28848 0.05008 0.22192
 O359 O 0.22103 0.00068 0.19076
 O360 O 0.22275 -0.03978 0.19889
 O361 O 0.19134 0.00131 0.22114
 O362 O 0.19943 -0.03987 0.22325
 O363 O 0.24796 0.02767 0.19056
 O364 O 0.28920 0.02526 0.19904
 O365 O 0.22091 0.05778 0.24708
 O366 O 0.22801 0.05017 0.28776
 O367 O 0.30983 -0.02839 0.25125
 O368 O 0.30145 -0.02692 0.21150
 O369 O 0.25176 -0.06053 0.27782
 O370 O 0.21222 -0.05243 0.27556
 O371 O 0.27836 -0.00204 0.30922
 O372 O 0.27309 0.03827 0.30012
 Zr373 Zr 0.27699 0.01172 0.27674
 O374 O 0.25741 0.03300 0.25654
 Zr375 Zr 0.23790 -0.02806 0.27663
 O376 O 0.21653 -0.00814 0.25693
 Zr377 Zr 0.27731 -0.02783 0.23736
 O378 O 0.25736 -0.00837 0.21568
 Zr379 Zr 0.22345 0.02597 0.26209
 O380 O 0.24292 0.00611 0.28421
 Zr381 Zr 0.26268 0.02576 0.22254
 O382 O 0.28441 0.00628 0.24264
 Zr383 Zr 0.22331 -0.01364 0.22288
 O384 O 0.24325 -0.03546 0.24255
 O385 O 0.27168 -0.02226 0.27118
 O386 O 0.22871 0.02043 0.22802
 C387 C 0.31912 -0.01708 0.26709
 C388 C 0.26708 -0.01771 0.31867
 C389 C 0.26747 -0.06989 0.26652
 C390 C 0.18215 0.01751 0.23195
 C391 C 0.23196 0.06702 0.23115
 C392 C 0.23189 0.01669 0.18143
 H393 H 0.26089 0.04879 0.26019
 H394 H 0.26098 -0.01216 0.19998
 H395 H 0.28129 -0.03179 0.28076
 H396 H 0.20081 -0.01156 0.26082
 H397 H 0.20352 0.01976 0.29995
 H398 H 0.21341 -0.01501 0.30982
 H399 H 0.28662 0.01255 0.18871
 H400 H 0.30891 -0.01214 0.21255
 H401 H 0.21526 0.06080 0.28706
 H402 H 0.28501 0.03705 0.31165
 H403 H 0.23643 -0.03844 0.18967
 H404 H 0.26208 -0.05934 0.21209
 H405 H 0.30858 0.03611 0.26003
 H406 H 0.28716 0.05923 0.23568
 H407 H 0.21333 -0.05987 0.26078
 H408 H 0.18958 -0.03755 0.23635
 O409 O 0.55954 0.72099 0.24866
 O410 O 0.55234 0.72421 0.28699
 O411 O 0.50127 0.69032 0.22130
 O412 O 0.46137 0.69926 0.22218
 O413 O 0.52846 0.74874 0.19013
 O414 O 0.52687 0.78789 0.19829
 O415 O 0.44150 0.75154 0.27931
 O416 O 0.44705 0.71394 0.27488
 O417 O 0.49833 0.77926 0.30837
 O418 O 0.53868 0.77758 0.30067
 O419 O 0.47121 0.80884 0.25142
 O420 O 0.47260 0.80069 0.21101
 O421 O 0.44137 0.77839 0.25214
 O422 O 0.44925 0.77636 0.21100
 O423 O 0.49834 0.80906 0.27822
 O424 O 0.53951 0.80038 0.27581
 O425 O 0.47107 0.75257 0.30839
 O426 O 0.47827 0.71185 0.30087
 O427 O 0.55968 0.74836 0.22194
 O428 O 0.55136 0.78810 0.22357
 O429 O 0.50142 0.72179 0.19002
 O430 O 0.46192 0.72403 0.19830
 O431 O 0.52828 0.69027 0.24829
 O432 O 0.52328 0.69936 0.28863
 Zr433 Zr 0.52704 0.72277 0.26213
 O434 O 0.50758 0.74297 0.28352
 Zr435 Zr 0.48775 0.72293 0.22253
 O436 O 0.46650 0.74261 0.24256
 Zr437 Zr 0.52718 0.76223 0.22269
 O438 O 0.50737 0.78389 0.24227
 Zr439 Zr 0.47357 0.73744 0.27663
 O440 O 0.49293 0.71532 0.25665
 Zr441 Zr 0.51286 0.77699 0.27634
 O442 O 0.53447 0.75691 0.25674
 Zr443 Zr 0.47328 0.77668 0.23710
 O444 O 0.49309 0.75703 0.21518
 O445 O 0.52156 0.72837 0.22819
 O446 O 0.47884 0.77153 0.27112
 C447 C 0.56904 0.73252 0.23317
 C448 C 0.51688 0.68083 0.23267
 C449 C 0.51709 0.73314 0.18062
 C450 C 0.43220 0.76748 0.26827
 C451 C 0.48214 0.76855 0.31760
 C452 C 0.48226 0.81821 0.26730
 H453 H 0.51112 0.73932 0.29930
 H454 H 0.51101 0.79959 0.23848
 H455 H 0.53111 0.71880 0.21861
 H456 H 0.45076 0.73871 0.23919
 H457 H 0.45376 0.69942 0.27056
 H458 H 0.46321 0.68977 0.23563
 H459 H 0.53697 0.81069 0.26309
 H460 H 0.55897 0.78698 0.23827
 H461 H 0.46554 0.71254 0.31149
 H462 H 0.53517 0.68782 0.28732
 H463 H 0.48633 0.80988 0.21226
 H464 H 0.51184 0.78753 0.19129
 H465 H 0.55872 0.73951 0.28647
 H466 H 0.53736 0.76381 0.30978
 H467 H 0.46303 0.73881 0.19085
 H468 H 0.43944 0.76319 0.21328
 O469 O -0.00163 0.77976 0.80985
 O470 O 0.03663 0.77667 0.80250
 O471 O -0.02925 0.81037 0.75163
 O472 O -0.02831 0.80138 0.71162
 O473 O -0.06027 0.75208 0.77892
 O474 O -0.05215 0.71287 0.77723
 O475 O 0.02880 0.74914 0.69174
 O476 O 0.02418 0.78674 0.69717
 O477 O 0.05790 0.72161 0.74846
 O478 O 0.05021 0.72331 0.78892
 O479 O 0.00093 0.69184 0.72149
 O480 O -0.03944 0.69995 0.72292
 O481 O 0.00168 0.72223 0.69165
 O482 O -0.03951 0.72431 0.69955
 O483 O 0.02782 0.69172 0.74854
 O484 O 0.02549 0.70037 0.78970
 O485 O 0.05784 0.74835 0.72126
 O486 O 0.05020 0.78904 0.72839
 O487 O -0.02832 0.75237 0.81008
 O488 O -0.02684 0.71264 0.80170
 O489 O -0.06044 0.77894 0.75179
 O490 O -0.05228 0.77663 0.71229
 O491 O -0.00223 0.81046 0.77862
 O492 O 0.03810 0.80149 0.77340
 Zr493 Zr 0.01168 0.77801 0.77728
 O494 O 0.03304 0.75783 0.75778
 Zr495 Zr -0.02798 0.77777 0.73805
 O496 O -0.00799 0.75808 0.71675
 Zr497 Zr -0.02773 0.73851 0.77752
 O498 O -0.00817 0.71685 0.75767
 Zr499 Zr 0.02605 0.76334 0.72377
 O500 O 0.00612 0.78545 0.74317
 Zr501 Zr 0.02591 0.72380 0.76308
 O502 O 0.00633 0.74388 0.78473
 Zr503 Zr -0.01339 0.72400 0.72356
 O504 O -0.03528 0.74366 0.74342
 O505 O -0.02224 0.77236 0.77188
 O506 O 0.02061 0.72923 0.72906
 C507 C -0.01705 0.76820 0.81941
 C508 C -0.01790 0.81987 0.76726
 C509 C -0.06979 0.76767 0.76754
 C510 C 0.01782 0.73312 0.68248
 C511 C 0.06708 0.73238 0.73229
 C512 C 0.01686 0.68251 0.73250
 H513 H 0.04880 0.76152 0.76129
 H514 H -0.01193 0.70115 0.76132
 H515 H -0.03179 0.78192 0.78147
 H516 H -0.01138 0.76195 0.70100
 H517 H 0.01983 0.80126 0.70386
 H518 H -0.01499 0.81103 0.71358
 H519 H 0.01274 0.69008 0.78721
 H520 H -0.01209 0.71369 0.80921
 H521 H 0.06079 0.78838 0.71562
 H522 H 0.03681 0.81305 0.78530
 H523 H -0.03824 0.69087 0.73673
 H524 H -0.05921 0.71328 0.76222
 H525 H 0.03619 0.76135 0.80886
 H526 H 0.05943 0.73700 0.78746
 H527 H -0.05963 0.76180 0.71336
 H528 H -0.03717 0.73738 0.68966
 O529 O -0.02933 -0.05946 -0.00129
 O530 O -0.02611 -0.05226 0.03700
 O531 O -0.05987 -0.00103 -0.02856
 O532 O -0.05086 0.03891 -0.02756
 O533 O -0.00171 -0.02838 -0.05983
 O534 O 0.03744 -0.02686 -0.05172
 O535 O 0.00147 0.05859 0.02963
 O536 O -0.03610 0.05318 0.02512
 O537 O 0.02900 0.00164 0.05850
 O538 O 0.02730 -0.03878 0.05060
 O539 O 0.05856 0.02888 0.00164
 O540 O 0.05047 0.02747 -0.03876
 O541 O 0.02822 0.05872 0.00242
 O542 O 0.02608 0.05081 -0.03882
 O543 O 0.05875 0.00175 0.02842
 O544 O 0.05013 -0.03950 0.02580
 O545 O 0.00238 0.02897 0.05859
 O546 O -0.03829 0.02189 0.05103
 O547 O -0.00202 -0.05968 -0.02802
 O548 O 0.03768 -0.05138 -0.02650
 O549 O -0.02853 -0.00122 -0.05983
 O550 O -0.02616 0.03831 -0.05147
 O551 O -0.05995 -0.02811 -0.00166
 O552 O -0.05083 -0.02309 0.03870
 Zr553 Zr -0.02748 -0.02693 0.01219
 O554 O -0.00724 -0.00751 0.03362
 Zr555 Zr -0.02729 0.01244 -0.02730
 O556 O -0.00756 0.03366 -0.00723
 Zr557 Zr 0.01187 -0.02714 -0.02727
 O558 O 0.03359 -0.00735 -0.00766
 Zr559 Zr -0.01273 0.02655 0.02681
 O560 O -0.03487 0.00724 0.00680
 Zr561 Zr 0.02673 -0.01284 0.02641
 O562 O 0.00659 -0.03442 0.00677
 Zr563 Zr 0.02645 0.02680 -0.01272
 O564 O 0.00675 0.00701 -0.03468
 O565 O -0.02192 -0.02144 -0.02173
 O566 O 0.02131 0.02122 0.02128
 C567 C -0.01783 -0.06902 -0.01678
 C568 C -0.06937 -0.01666 -0.01726
 C569 C -0.01729 -0.01694 -0.06928
 C570 C 0.01740 0.06788 0.01861
 C571 C 0.01832 0.01784 0.06777
 C572 C 0.06790 0.01787 0.01756
 H573 H -0.01088 -0.01107 0.04938
 H574 H 0.04927 -0.01101 -0.01145
 H575 H -0.03151 -0.03098 -0.03132
 H576 H -0.01143 0.04943 -0.01055
 H577 H -0.05064 0.04651 0.02080
 H578 H -0.06036 0.03704 -0.01413
 H579 H 0.06046 -0.03689 0.01312
 H580 H 0.03666 -0.05893 -0.01177
 H581 H -0.03759 0.03464 0.06167
 H582 H -0.06241 -0.03495 0.03736
 H583 H 0.05956 0.01367 -0.03759
 H584 H 0.03712 -0.01179 -0.05865
 H585 H -0.01083 -0.05865 0.03651
 H586 H 0.01360 -0.03740 0.05979
 H587 H -0.01141 0.03716 -0.05893
 H588 H 0.01305 0.06076 -0.03641
 O589 O 0.00116 0.55936 0.52931
 O590 O -0.03717 0.55203 0.52608
 O591 O 0.02874 0.50130 0.55993
 O592 O 0.02778 0.46127 0.55112
 O593 O 0.05966 0.52835 0.50142
 O594 O 0.05135 0.52675 0.46233
 O595 O -0.02935 0.44106 0.49893
 O596 O -0.02479 0.44666 0.53650
 O597 O -0.05857 0.49779 0.47125
 O598 O -0.05090 0.53821 0.47278
 O599 O -0.00171 0.47064 0.44164
 O600 O 0.03876 0.47233 0.44967
 O601 O -0.00221 0.44094 0.47209
 O602 O 0.03891 0.44899 0.47406
 O603 O -0.02857 0.49769 0.44141
 O604 O -0.02611 0.53900 0.44991
 O605 O -0.05845 0.47056 0.49796
 O606 O -0.05083 0.47784 0.53863
 O607 O 0.02783 0.55954 0.50194
 O608 O 0.02601 0.55118 0.46219
 O609 O 0.05988 0.50135 0.52840
 O610 O 0.05165 0.46180 0.52636
 O611 O 0.00166 0.52820 0.55998
 O612 O -0.03867 0.52297 0.55099
 Zr613 Zr -0.01226 0.52680 0.52754
 O614 O -0.03365 0.50719 0.50742
 Zr615 Zr 0.02739 0.48759 0.52740
 O616 O 0.00738 0.46620 0.50779
 Zr617 Zr 0.02705 0.52699 0.48804
 O618 O 0.00749 0.50703 0.46645
 Zr619 Zr -0.02667 0.47318 0.51301
 O620 O -0.00670 0.49268 0.53505
 Zr621 Zr -0.02656 0.51241 0.47339
 O622 O -0.00698 0.53417 0.49340
 Zr623 Zr 0.01275 0.47294 0.47372
 O624 O 0.03464 0.49290 0.49329
 O625 O 0.02165 0.52141 0.52189
 O626 O -0.02125 0.47840 0.47892
 C627 C 0.01665 0.56889 0.51781
 C628 C 0.01738 0.51692 0.56940
 C629 C 0.06922 0.51701 0.51700
 C630 C -0.01832 0.43175 0.48299
 C631 C -0.06772 0.48158 0.48199
 C632 C -0.01768 0.48156 0.43230
 H633 H -0.04941 0.51069 0.51109
 H634 H 0.01122 0.51063 0.45074
 H635 H 0.03125 0.53100 0.53141
 H636 H 0.01079 0.45046 0.51171
 H637 H -0.02041 0.45341 0.55099
 H638 H 0.01443 0.46321 0.56071
 H639 H -0.01346 0.53640 0.43955
 H640 H 0.01130 0.55873 0.46335
 H641 H -0.06142 0.46506 0.53798
 H642 H -0.03738 0.53492 0.56249
 H643 H 0.03734 0.48596 0.44036
 H644 H 0.05831 0.51170 0.46262
 H645 H -0.03663 0.55845 0.51081
 H646 H -0.05994 0.53693 0.48659
 H647 H 0.05902 0.46284 0.51155
 H648 H 0.03665 0.43916 0.48719
 O649 O 0.55980 0.02920 0.50160
 O650 O 0.55258 0.02585 0.46327
 O651 O 0.50155 0.05969 0.52887
 O652 O 0.46164 0.05066 0.52797
 O653 O 0.52886 0.00133 0.56013
 O654 O 0.52740 -0.03783 0.55192
 O655 O 0.44179 -0.00153 0.47085
 O656 O 0.44727 0.03602 0.47532
 O657 O 0.49867 -0.02907 0.44175
 O658 O 0.53904 -0.02749 0.44966
 O659 O 0.47148 -0.05882 0.49860
 O660 O 0.47305 -0.05084 0.53903
 O661 O 0.44170 -0.02835 0.49805
 O662 O 0.44980 -0.02641 0.53923
 O663 O 0.49855 -0.05898 0.47180
 O664 O 0.53973 -0.05045 0.47438
 O665 O 0.47136 -0.00244 0.44177
 O666 O 0.47846 0.03824 0.44938
 O667 O 0.56008 0.00183 0.52832
 O668 O 0.55185 -0.03796 0.52664
 O669 O 0.50178 0.02824 0.56017
 O670 O 0.46232 0.02595 0.55189
 O671 O 0.52849 0.05978 0.50188
 O672 O 0.52348 0.05066 0.46156
 Zr673 Zr 0.52731 0.02728 0.48809
 O674 O 0.50784 0.00707 0.46668
 Zr675 Zr 0.48808 0.02707 0.52765
 O676 O 0.46683 0.00736 0.50761
 Zr677 Zr 0.52760 -0.01216 0.52753
 O678 O 0.50777 -0.03386 0.50793
 Zr679 Zr 0.47385 0.01259 0.47357
 O680 O 0.49320 0.03471 0.49355
 Zr681 Zr 0.51316 -0.02695 0.47385
 O682 O 0.53479 -0.00684 0.49348
 Zr683 Zr 0.47367 -0.02671 0.51305
 O684 O 0.49350 -0.00704 0.53499
 O685 O 0.52190 0.02168 0.52202
 O686 O 0.47915 -0.02151 0.47904
 C687 C 0.56937 0.01772 0.51710
 C688 C 0.51710 0.06921 0.51749
 C689 C 0.51745 0.01692 0.56961
 C690 C 0.43250 -0.01743 0.48192
 C691 C 0.48248 -0.01833 0.43253
 C692 C 0.48244 -0.06815 0.48265
 H693 H 0.51136 0.01074 0.45092
 H694 H 0.51141 -0.04957 0.51169
 H695 H 0.53143 0.03128 0.53162
 H696 H 0.45110 0.01124 0.51099
 H697 H 0.45396 0.05055 0.47966
 H698 H 0.46348 0.06022 0.51457
 H699 H 0.53720 -0.06074 0.48711
 H700 H 0.55935 -0.03687 0.51191
 H701 H 0.46571 0.03757 0.43875
 H702 H 0.53537 0.06221 0.46286
 H703 H 0.48681 -0.05999 0.53777
 H704 H 0.51234 -0.03758 0.55882
 H705 H 0.55905 0.01059 0.46387
 H706 H 0.53770 -0.01372 0.44053
 H707 H 0.46345 0.01116 0.55931
 H708 H 0.43991 -0.01331 0.53693
 O709 O 0.50149 0.55922 0.02885
 O710 O 0.46321 0.55188 0.02576
 O711 O 0.52906 0.50101 0.05949
 O712 O 0.52824 0.46104 0.05058
 O713 O 0.55999 0.52826 0.00104
 O714 O 0.55172 0.52657 -0.03808
 O715 O 0.47098 0.44093 -0.00151
 O716 O 0.47557 0.44651 0.03605
 O717 O 0.44174 0.49770 -0.02911
 O718 O 0.44946 0.53814 -0.02755
 O719 O 0.49855 0.47055 -0.05882
 O720 O 0.53902 0.47220 -0.05085
 O721 O 0.49808 0.44082 -0.02837
 O722 O 0.53921 0.44887 -0.02646
 O723 O 0.47169 0.49760 -0.05898
 O724 O 0.47417 0.53889 -0.05048
 O725 O 0.44188 0.47044 -0.00242
 O726 O 0.44955 0.47770 0.03824
 O727 O 0.52809 0.55942 0.00142
 O728 O 0.52641 0.55101 -0.03828
 O729 O 0.56022 0.50123 0.02799
 O730 O 0.55204 0.46166 0.02578
 O731 O 0.50204 0.52797 0.05958
 O732 O 0.46170 0.52281 0.05060
 Zr733 Zr 0.48811 0.52664 0.02714
 O734 O 0.46670 0.50706 0.00703
 Zr735 Zr 0.52776 0.48742 0.02692
 O736 O 0.50772 0.46606 0.00732
 Zr737 Zr 0.52740 0.52685 -0.01239
 O738 O 0.50780 0.50692 -0.03398
 Zr739 Zr 0.47368 0.47305 0.01259
 O740 O 0.49368 0.49252 0.03461
 Zr741 Zr 0.47376 0.51231 -0.02700
 O742 O 0.49337 0.53403 -0.00700
 Zr743 Zr 0.51305 0.47282 -0.02676
 O744 O 0.53498 0.49275 -0.00719
 O745 O 0.52202 0.52126 0.02146
 O746 O 0.47906 0.47828 -0.02151
 C747 C 0.51689 0.56878 0.01727
 C748 C 0.51770 0.51661 0.06900
 C749 C 0.56955 0.51693 0.01662
 C750 C 0.48198 0.43163 -0.01746
 C751 C 0.43260 0.48149 -0.01836
 C752 C 0.48256 0.48148 -0.06813
 H753 H 0.45095 0.51057 0.01071
 H754 H 0.51151 0.51053 -0.04970
 H755 H 0.53160 0.53086 0.03100
 H756 H 0.51113 0.45032 0.01122
 H757 H 0.47992 0.45325 0.05056
 H758 H 0.51484 0.46286 0.06012
 H759 H 0.48680 0.53629 -0.06087
 H760 H 0.51167 0.55851 -0.03720
 H761 H 0.43896 0.46491 0.03760
 H762 H 0.46303 0.53472 0.06213
 H763 H 0.53765 0.48589 -0.06008
 H764 H 0.55871 0.51152 -0.03775
 H765 H 0.46365 0.55824 0.01046
 H766 H 0.44036 0.53679 -0.01379
 H767 H 0.55943 0.46277 0.01099
 H768 H 0.53698 0.43905 -0.01331
 O769 O 0.80983 0.25011 0.47108
 O770 O 0.80227 0.21178 0.47419
 O771 O 0.75186 0.27804 0.44051
 O772 O 0.71188 0.27730 0.44936
 O773 O 0.77931 0.30885 0.49889
 O774 O 0.77760 0.30064 0.53807
 O775 O 0.69152 0.22034 0.50134
 O776 O 0.69711 0.22476 0.46384
 O777 O 0.74809 0.19068 0.52903
 O778 O 0.78851 0.19812 0.52748
 O779 O 0.72149 0.24786 0.55880
 O780 O 0.72325 0.28826 0.55081
 O781 O 0.69164 0.24748 0.52826
 O782 O 0.69995 0.28857 0.52642
 O783 O 0.74836 0.22082 0.55897
 O784 O 0.78954 0.22290 0.55036
 O785 O 0.72084 0.19094 0.50232
 O786 O 0.72809 0.19852 0.46168
 O787 O 0.81021 0.27680 0.49851
 O788 O 0.80191 0.27517 0.53822
 O789 O 0.75224 0.30919 0.47196
 O790 O 0.71267 0.30124 0.47416
 O791 O 0.77864 0.25083 0.44039
 O792 O 0.77319 0.21046 0.44929
 Zr793 Zr 0.77722 0.23687 0.47280
 O794 O 0.75756 0.21558 0.49290
 Zr795 Zr 0.73827 0.27678 0.47303
 O796 O 0.71686 0.25688 0.49263
 Zr797 Zr 0.77772 0.27626 0.51235
 O798 O 0.75774 0.25678 0.53392
 Zr799 Zr 0.72362 0.22275 0.48734
 O800 O 0.74315 0.24263 0.46532
 Zr801 Zr 0.76289 0.22264 0.52693
 O802 O 0.78468 0.24214 0.50695
 Zr803 Zr 0.72370 0.26223 0.52670
 O804 O 0.74369 0.28404 0.50714
 O805 O 0.77203 0.27084 0.47851
 O806 O 0.72892 0.22814 0.52145
 C807 C 0.81946 0.26554 0.48263
 C808 C 0.76741 0.26662 0.43102
 C809 C 0.76802 0.31845 0.48329
 C810 C 0.68231 0.23147 0.51727
 C811 C 0.73185 0.18159 0.51824
 C812 C 0.73240 0.23188 0.56814
 H813 H 0.76096 0.19978 0.48920
 H814 H 0.76141 0.26051 0.54963
 H815 H 0.78166 0.28037 0.46899
 H816 H 0.70115 0.26039 0.48871
 H817 H 0.70386 0.22910 0.44936
 H818 H 0.71374 0.26394 0.43972
 H819 H 0.78714 0.23566 0.56067
 H820 H 0.80935 0.26039 0.53709
 H821 H 0.71526 0.18800 0.46231
 H822 H 0.78510 0.21170 0.43778
 H823 H 0.73703 0.28695 0.55992
 H824 H 0.76266 0.30782 0.53763
 H825 H 0.80869 0.21225 0.48948
 H826 H 0.78713 0.18905 0.51367
 H827 H 0.71387 0.30867 0.48894
 H828 H 0.69013 0.28642 0.51324
 O829 O 0.77852 0.81010 -0.00149
 O830 O 0.77543 0.80268 0.03677
 O831 O 0.80935 0.75200 -0.02911
 O832 O 0.80050 0.71200 -0.02844
 O833 O 0.75094 0.77927 -0.06020
 O834 O 0.71181 0.77737 -0.05213
 O835 O 0.74847 0.69172 0.02868
 O836 O 0.78595 0.69732 0.02422
 O837 O 0.72074 0.74841 0.05794
 O838 O 0.72217 0.78883 0.05029
 O839 O 0.69107 0.72137 0.00084
 O840 O 0.69915 0.72294 -0.03954
 O841 O 0.72163 0.69158 0.00148
 O842 O 0.72356 0.69967 -0.03965
 O843 O 0.69084 0.74836 0.02779
 O844 O 0.69930 0.78960 0.02551
 O845 O 0.74753 0.72126 0.05787
 O846 O 0.78815 0.72852 0.05023
 O847 O 0.75111 0.81031 -0.02819
 O848 O 0.71146 0.80176 -0.02674
 O849 O 0.77793 0.75228 -0.06041
 O850 O 0.77573 0.71266 -0.05237
 O851 O 0.80933 0.77893 -0.00203
 O852 O 0.80034 0.77365 0.03828
 Zr853 Zr 0.77690 0.77749 0.01179
 O854 O 0.75682 0.75785 0.03310
 Zr855 Zr 0.77682 0.73836 -0.02798
 O856 O 0.75726 0.71692 -0.00803
 Zr857 Zr 0.73743 0.77769 -0.02767
 O858 O 0.71589 0.75769 -0.00817
 Zr859 Zr 0.76247 0.72386 0.02606
 O860 O 0.78445 0.74340 0.00616
 Zr861 Zr 0.72281 0.76304 0.02593
 O862 O 0.74277 0.78483 0.00642
 Zr863 Zr 0.72318 0.72360 -0.01345
 O864 O 0.74271 0.74361 -0.03530
 O865 O 0.77127 0.77216 -0.02216
 O866 O 0.72837 0.72902 0.02059
 C867 C 0.76692 0.81967 -0.01690
 C868 C 0.81879 0.76761 -0.01768
 C869 C 0.76658 0.76801 -0.06974
 C870 C 0.73257 0.68239 0.01760
 C871 C 0.73158 0.73228 0.06714
 C872 C 0.68170 0.73231 0.01678
 H873 H 0.76050 0.76134 0.04888
 H874 H 0.70018 0.76129 -0.01195
 H875 H 0.78079 0.78182 -0.03167
 H876 H 0.76120 0.70119 -0.01146
 H877 H 0.80042 0.70406 0.01982
 H878 H 0.81004 0.71382 -0.01501
 H879 H 0.68900 0.78707 0.01277
 H880 H 0.71251 0.80928 -0.01198
 H881 H 0.78753 0.71575 0.06084
 H882 H 0.81183 0.78560 0.03703
 H883 H 0.69002 0.73672 -0.03832
 H884 H 0.71227 0.76237 -0.05922
 H885 H 0.76013 0.80903 0.03628
 H886 H 0.73593 0.78752 0.05943
 H887 H 0.76095 0.71378 -0.05980
 H888 H 0.73675 0.68990 -0.03741
 O889 O 1.00148 0.19038 0.22057
 O890 O 0.96314 0.19770 0.22366
 O891 O 1.02910 0.24862 0.19037
 O892 O 1.02794 0.28866 0.19938
 O893 O 1.05996 0.22126 0.24869
 O894 O 1.05171 0.22266 0.28781
 O895 O 0.97081 0.30842 0.25166
 O896 O 0.97549 0.30318 0.21406
 O897 O 0.94173 0.25154 0.27878
 O898 O 0.94943 0.21115 0.27706
 O899 O 0.99869 0.27846 0.30878
 O900 O 1.03911 0.27697 0.30073
 O901 O 0.99795 0.30839 0.27857
 O902 O 1.03912 0.30050 0.27654
 O903 O 0.97179 0.25145 0.30875
 O904 O 0.97421 0.21022 0.29997
 O905 O 0.94179 0.27886 0.25216
 O906 O 0.94955 0.27195 0.21149
 O907 O 1.02816 0.19006 0.24800
 O908 O 1.02642 0.19819 0.28777
 O909 O 1.06016 0.24850 0.22193
 O910 O 1.05190 0.28800 0.22418
 O911 O 1.00206 0.22167 0.19008
 O912 O 0.96169 0.22691 0.19892
 Zr913 Zr 0.98806 0.22293 0.22246
 O914 O 0.96667 0.24239 0.24265
 Zr915 Zr 1.02767 0.26219 0.22294
 O916 O 1.00765 0.28343 0.24265
 Zr917 Zr 1.02739 0.22253 0.26206
 O918 O 1.00781 0.24233 0.28372
 Zr919 Zr 0.97362 0.27643 0.23729
 O920 O 0.99359 0.25710 0.21517
 Zr921 Zr 0.97375 0.23696 0.27666
 O922 O 0.99336 0.21535 0.25656
 Zr923 Zr 1.01303 0.27647 0.27669
 O924 O 1.03494 0.25667 0.25703
 O925 O 1.02196 0.22833 0.22824
 O926 O 0.97903 0.27101 0.27136
 C927 C 1.01696 0.18079 0.23207
 C928 C 1.01780 0.23300 0.18079
 C929 C 1.06950 0.23273 0.23320
 C930 C 0.98179 0.31761 0.26773
 C931 C 0.93254 0.26775 0.26804
 C932 C 0.98274 0.26746 0.31803
 H933 H 0.95092 0.23889 0.23890
 H934 H 1.01156 0.23862 0.29942
 H935 H 1.03157 0.21878 0.21870
 H936 H 1.01103 0.29920 0.23885
 H937 H 0.97996 0.29658 0.19954
 H938 H 1.01469 0.28663 0.18963
 H939 H 0.98689 0.21272 0.31035
 H940 H 1.01171 0.19065 0.28657
 H941 H 0.93893 0.28471 0.21218
 H942 H 0.96301 0.21504 0.18735
 H943 H 1.03779 0.26322 0.30989
 H944 H 1.05874 0.23769 0.28754
 H945 H 0.96366 0.19120 0.23891
 H946 H 0.94039 0.21250 0.26323
 H947 H 1.05921 0.28693 0.23903
 H948 H 1.03677 0.31047 0.26352
 O949 O 0.68983 1.02907 0.74840
 O950 O 0.69704 1.02613 0.78673
 O951 O 0.74808 1.05963 0.72101
 O952 O 0.78805 1.05070 0.72213
 O953 O 0.72094 1.00112 0.69005
 O954 O 0.72263 0.96196 0.69835
 O955 O 0.80786 0.99888 0.77957
 O956 O 0.80234 1.03638 0.77486
 O957 O 0.75100 0.97139 0.80861
 O958 O 0.71065 0.97282 0.80060
 O959 O 0.77833 0.94133 0.75190
 O960 O 0.77695 0.94914 0.71148
 O961 O 0.80809 0.97189 0.75251
 O962 O 0.80014 0.97362 0.71127
 O963 O 0.75123 0.94127 0.77865
 O964 O 0.71005 0.94975 0.77598
 O965 O 0.77819 0.99813 0.80856
 O966 O 0.77106 1.03874 0.80067
 O967 O 0.68969 1.00153 0.72182
 O968 O 0.69812 0.96181 0.72356
 O969 O 0.74799 1.02805 0.68993
 O970 O 0.78746 1.02584 0.69828
 O971 O 0.72103 1.05981 0.74789
 O972 O 0.72608 1.05100 0.78831
 Zr973 Zr 0.72233 1.02741 0.76192
 O974 O 0.74179 1.00737 0.78347
 Zr975 Zr 0.76166 1.02706 0.72246
 O976 O 0.78290 1.00751 0.74266
 Zr977 Zr 0.72225 0.98772 0.72267
 O978 O 0.74208 0.96619 0.74243
 Zr979 Zr 0.77579 1.01293 0.77666
 O980 O 0.75643 1.03489 0.75651
 Zr981 Zr 0.73658 0.97329 0.77646
 O982 O 0.71496 0.99323 0.75668
 Zr983 Zr 0.77617 0.97339 0.73737
 O984 O 0.75635 0.99289 0.71528
 O985 O 0.72783 1.02161 0.72804
 O986 O 0.77059 0.97877 0.77134
 C987 C 0.68032 1.01742 0.73297
 C988 C 0.73243 1.06917 0.73225
 C989 C 0.73231 1.01670 0.68053
 C990 C 0.81722 0.98291 0.76862
 C991 C 0.76709 0.98226 0.81784
 C992 C 0.76733 0.93205 0.76784
 H993 H 0.73822 1.01113 0.79921
 H994 H 0.73848 0.95046 0.73872
 H995 H 0.71827 1.03111 0.71840
 H996 H 0.79864 1.01141 0.73931
 H997 H 0.79565 1.05086 0.77038
 H998 H 0.78609 1.06039 0.73544
 H999 H 0.71263 0.93938 0.76331
 H1000 H 0.69058 0.96292 0.73828
 H1001 H 0.78378 1.03817 0.81135
 H1002 H 0.71419 1.06253 0.78690
 H1003 H 0.76313 0.94008 0.71262
 H1004 H 0.73767 0.96232 0.69141
 H1005 H 0.69065 1.01082 0.78626
 H1006 H 0.71194 0.98663 0.80968
 H1007 H 0.78637 1.01100 0.69092
 H1008 H 0.80999 0.98676 0.71356
 O1009 O 0.69075 0.52920 0.24894
 O1010 O 0.69806 0.52622 0.28723
 O1011 O 0.74898 0.55982 0.22147
 O1012 O 0.78895 0.55091 0.22259
 O1013 O 0.72179 0.50145 0.19040
 O1014 O 0.72341 0.46227 0.19858
 O1015 O 0.80878 0.49872 0.27983
 O1016 O 0.80333 0.53633 0.27518
 O1017 O 0.75210 0.47115 0.30874
 O1018 O 0.71166 0.47284 0.30094
 O1019 O 0.77909 0.44139 0.25185
 O1020 O 0.77768 0.44945 0.21145
 O1021 O 0.80888 0.47178 0.25271
 O1022 O 0.80104 0.47382 0.21146
 O1023 O 0.75204 0.44126 0.27866
 O1024 O 0.71087 0.44989 0.27618
 O1025 O 0.77929 0.49790 0.30877
 O1026 O 0.77212 0.53858 0.30113
 O1027 O 0.69057 0.50178 0.22224
 O1028 O 0.69894 0.46208 0.22378
 O1029 O 0.74890 0.52832 0.19031
 O1030 O 0.78837 0.52611 0.19866
 O1031 O 0.72198 0.55995 0.24839
 O1032 O 0.72715 0.55103 0.28880
 Zr1033 Zr 0.72330 0.52752 0.26237
 O1034 O 0.74277 0.50737 0.28383
 Zr1035 Zr 0.76256 0.52725 0.22284
 O1036 O 0.78382 0.50761 0.24294
 Zr1037 Zr 0.72311 0.48796 0.22297
 O1038 O 0.74292 0.46634 0.24262
 Zr1039 Zr 0.77676 0.51290 0.27697
 O1040 O 0.75740 0.53496 0.25693
 Zr1041 Zr 0.73749 0.47333 0.27669
 O1042 O 0.71587 0.49337 0.25701
 Zr1043 Zr 0.77701 0.47352 0.23751
 O1044 O 0.75720 0.49313 0.21553
 O1045 O 0.72874 0.52182 0.22845
 O1046 O 0.77149 0.47879 0.27151
 C1047 C 0.68121 0.51760 0.23349
 C1048 C 0.73334 0.56933 0.23274
 C1049 C 0.73320 0.51701 0.18089
 C1050 C 0.81803 0.48268 0.26888
 C1051 C 0.76827 0.48191 0.31797
 C1052 C 0.76809 0.43207 0.26776
 H1053 H 0.73925 0.51107 0.29959
 H1054 H 0.73929 0.45063 0.23885
 H1055 H 0.71916 0.53135 0.21885
 H1056 H 0.79957 0.51148 0.23960
 H1057 H 0.79663 0.55085 0.27083
 H1058 H 0.78699 0.56054 0.23593
 H1059 H 0.71339 0.43956 0.26347
 H1060 H 0.69143 0.46313 0.23852
 H1061 H 0.78488 0.53795 0.31176
 H1062 H 0.71529 0.56260 0.28743
 H1063 H 0.76391 0.44033 0.21264
 H1064 H 0.73842 0.46266 0.19157
 H1065 H 0.69176 0.51088 0.28683
 H1066 H 0.71311 0.48654 0.31016
 H1067 H 0.78732 0.51127 0.19130
 H1068 H 0.81096 0.48688 0.21386
 O1069 O 0.55960 0.22042 0.74845
 O1070 O 0.55231 0.22325 0.78678
 O1071 O 0.50142 0.19007 0.72061
 O1072 O 0.46149 0.19898 0.72163
 O1073 O 0.52861 0.24878 0.69009
 O1074 O 0.52714 0.28782 0.69863
 O1075 O 0.44157 0.25087 0.77918
 O1076 O 0.44699 0.21330 0.77435
 O1077 O 0.49841 0.27813 0.80857
 O1078 O 0.53872 0.27661 0.80085
 O1079 O 0.47125 0.30829 0.75187
 O1080 O 0.47285 0.30052 0.71131
 O1081 O 0.44149 0.27790 0.75219
 O1082 O 0.44944 0.27622 0.71105
 O1083 O 0.49828 0.30824 0.77877
 O1084 O 0.53954 0.29965 0.77620
 O1085 O 0.47113 0.25147 0.80830
 O1086 O 0.47819 0.21081 0.80033
 O1087 O 0.55983 0.24802 0.72198
 O1088 O 0.55154 0.28777 0.72397
 O1089 O 0.50153 0.22188 0.68968
 O1090 O 0.46205 0.22394 0.69794
 O1091 O 0.52836 0.18974 0.74767
 O1092 O 0.52320 0.19844 0.78810
 Zr1093 Zr 0.52707 0.22210 0.76184
 O1094 O 0.50760 0.24213 0.78337
 Zr1095 Zr 0.48786 0.22265 0.72219
 O1096 O 0.46659 0.24218 0.74235
 Zr1097 Zr 0.52734 0.26193 0.72279
 O1098 O 0.50750 0.28344 0.74250
 Zr1099 Zr 0.47360 0.23668 0.77637
 O1100 O 0.49297 0.21472 0.75624
 Zr1101 Zr 0.51291 0.27622 0.77652
 O1102 O 0.53454 0.25628 0.75680
 Zr1103 Zr 0.47342 0.27629 0.73720
 O1104 O 0.49325 0.25682 0.71517
 O1105 O 0.52167 0.22802 0.72795
 O1106 O 0.47891 0.27082 0.77118
 C1107 C 0.56915 0.23208 0.73310
 C1108 C 0.51701 0.18045 0.73191
 C1109 C 0.51720 0.23331 0.68041
 C1110 C 0.43231 0.26692 0.76825
 C1111 C 0.48223 0.26732 0.81767
 C1112 C 0.48220 0.31749 0.76792
 H1113 H 0.51112 0.23833 0.79911
 H1114 H 0.51113 0.29918 0.73887
 H1115 H 0.53123 0.21855 0.71829
 H1116 H 0.45085 0.23832 0.73891
 H1117 H 0.45366 0.19882 0.76983
 H1118 H 0.46339 0.18930 0.73493
 H1119 H 0.53691 0.31017 0.76367
 H1120 H 0.55908 0.28653 0.73869
 H1121 H 0.46546 0.21142 0.81095
 H1122 H 0.53507 0.18688 0.78671
 H1123 H 0.48649 0.30981 0.71281
 H1124 H 0.51208 0.28763 0.69168
 H1125 H 0.55873 0.23854 0.78642
 H1126 H 0.53744 0.26272 0.80979
 H1127 H 0.46312 0.23882 0.69068
 H1128 H 0.43958 0.26308 0.71322
 O1129 O 0.25121 0.77946 0.44041
 O1130 O 0.21292 0.77626 0.44761
 O1131 O 0.27857 0.81005 0.49879
 O1132 O 0.27768 0.80104 0.53872
 O1133 O 0.30972 0.75179 0.47140
 O1134 O 0.30164 0.71256 0.47306
 O1135 O 0.22054 0.74885 0.55843
 O1136 O 0.22509 0.78644 0.55298
 O1137 O 0.19155 0.72120 0.50165
 O1138 O 0.19926 0.72289 0.46122
 O1139 O 0.24852 0.69151 0.52865
 O1140 O 0.28882 0.69962 0.52738
 O1141 O 0.24766 0.72194 0.55855
 O1142 O 0.28889 0.72405 0.55068
 O1143 O 0.22170 0.69133 0.50154
 O1144 O 0.22405 0.70003 0.46040
 O1145 O 0.19154 0.74794 0.52888
 O1146 O 0.19909 0.78862 0.52172
 O1147 O 0.27791 0.75207 0.44022
 O1148 O 0.27637 0.71232 0.44853
 O1149 O 0.30981 0.77868 0.49853
 O1150 O 0.30161 0.77627 0.53806
 O1151 O 0.25163 0.81014 0.47173
 O1152 O 0.21129 0.80108 0.47674
 Zr1153 Zr 0.23777 0.77766 0.47293
 O1154 O 0.21639 0.75746 0.49237
 Zr1155 Zr 0.27735 0.77744 0.51226
 O1156 O 0.25733 0.75776 0.53349
 Zr1157 Zr 0.27721 0.73819 0.47274
 O1158 O 0.25763 0.71653 0.49253
 Zr1159 Zr 0.22330 0.76299 0.52639
 O1160 O 0.24326 0.78510 0.50706
 Zr1161 Zr 0.22356 0.72343 0.48707
 O1162 O 0.24316 0.74352 0.46547
 Zr1163 Zr 0.26278 0.72369 0.52666
 O1164 O 0.28470 0.74334 0.50686
 O1165 O 0.27168 0.77204 0.47842
 O1166 O 0.22878 0.72888 0.52110
 C1167 C 0.26669 0.76793 0.43088
 C1168 C 0.26725 0.81955 0.48315
 C1169 C 0.31919 0.76743 0.48278
 C1170 C 0.23152 0.73285 0.56771
 C1171 C 0.18233 0.73195 0.51783
 C1172 C 0.23265 0.68214 0.51759
 H1173 H 0.20063 0.76112 0.48883
 H1174 H 0.26142 0.70082 0.48887
 H1175 H 0.28123 0.78162 0.46886
 H1176 H 0.26069 0.76164 0.54925
 H1177 H 0.22936 0.80098 0.54628
 H1178 H 0.26428 0.81060 0.53685
 H1179 H 0.23682 0.68976 0.46288
 H1180 H 0.26166 0.71341 0.44095
 H1181 H 0.18850 0.78797 0.53448
 H1182 H 0.21261 0.81264 0.46487
 H1183 H 0.28775 0.69065 0.51349
 H1184 H 0.30871 0.71301 0.48806
 H1185 H 0.21340 0.76095 0.44125
 H1186 H 0.19009 0.73662 0.46262
 H1187 H 0.30904 0.76149 0.53690
 H1188 H 0.28649 0.73711 0.56061
 O1189 O 0.25117 0.27887 0.94024
 O1190 O 0.21284 0.27599 0.94758
 O1191 O 0.27906 0.30916 0.99840
 O1192 O 0.27798 0.30024 1.03842
 O1193 O 0.30955 0.25059 0.97113
 O1194 O 0.30106 0.21146 0.97265
 O1195 O 0.22067 0.24845 1.05835
 O1196 O 0.22544 0.28601 1.05289
 O1197 O 0.19119 0.22112 1.00156
 O1198 O 0.19883 0.22273 0.96113
 O1199 O 0.24789 0.19096 1.02854
 O1200 O 0.28839 0.19868 1.02691
 O1201 O 0.24762 0.22137 1.05835
 O1202 O 0.28874 0.22301 1.05031
 O1203 O 0.22100 0.19102 1.00150
 O1204 O 0.22342 0.19962 0.96028
 O1205 O 0.19151 0.24777 1.02887
 O1206 O 0.19936 0.28841 1.02175
 O1207 O 0.27767 0.25129 0.93996
 O1208 O 0.27574 0.21154 0.94819
 O1209 O 0.30994 0.27747 0.99827
 O1210 O 0.30178 0.27533 1.03776
 O1211 O 0.25199 0.30950 0.97147
 O1212 O 0.21157 0.30085 0.97671
 Zr1213 Zr 0.23781 0.27716 0.97279
 O1214 O 0.21632 0.25714 0.99229
 Zr1215 Zr 0.27748 0.27661 1.01199
 O1216 O 0.25739 0.25706 1.03327
 Zr1217 Zr 0.27689 0.23735 0.97245
 O1218 O 0.25720 0.21583 0.99229
 Zr1219 Zr 0.22338 0.26259 1.02630
 O1220 O 0.24345 0.28455 1.00691
 Zr1221 Zr 0.22318 0.22305 0.98694
 O1222 O 0.24288 0.24299 0.96528
 Zr1223 Zr 0.26254 0.22295 1.02639
 O1224 O 0.28454 0.24245 1.00655
 O1225 O 0.27168 0.27123 0.97817
 O1226 O 0.22857 0.22844 1.02095
 C1227 C 0.26656 0.26725 0.93067
 C1228 C 0.26779 0.31875 0.98278
 C1229 C 0.31919 0.26610 0.98253
 C1230 C 0.23162 0.23240 1.06759
 C1231 C 0.18213 0.23190 1.01780
 C1232 C 0.23186 0.18176 1.01757
 H1233 H 0.20058 0.26094 0.98880
 H1234 H 0.26083 0.20009 0.98862
 H1235 H 0.28132 0.28071 0.96860
 H1236 H 0.26085 0.26091 1.04901
 H1237 H 0.22988 0.30050 1.04619
 H1238 H 0.26476 0.31003 1.03642
 H1239 H 0.23604 0.18918 0.96280
 H1240 H 0.26099 0.21275 0.94069
 H1241 H 0.18879 0.28782 1.03453
 H1242 H 0.21295 0.31239 0.96483
 H1243 H 0.28695 0.18948 1.01320
 H1244 H 0.30810 0.21174 0.98768
 H1245 H 0.21323 0.26071 0.94113
 H1246 H 0.18981 0.23656 0.96253
 H1247 H 0.30905 0.26046 1.03666
 H1248 H 0.28659 0.23616 1.06018
 C1249 C 0.29496 0.35266 0.79393
 C1250 C 0.28821 0.37045 0.78715
 C1251 C 0.28075 0.39164 0.77976
 C1252 C 0.27478 0.41003 0.77390
 C1253 C 0.29401 -0.14948 0.29305
 C1254 C 0.28708 -0.13184 0.28602
 C1255 C 0.27956 -0.11072 0.27848
 C1256 C 0.27370 -0.09229 0.27265
 C1257 C 0.79386 0.85249 0.79482
 C1258 C 0.78716 0.87030 0.78799
 C1259 C 0.77979 0.89150 0.78045
 C1260 C 0.77388 0.90987 0.77444
 C1261 C 0.45600 0.89782 0.29400
 C1262 C 0.46268 0.88004 0.28712
 C1263 C 0.46998 0.85885 0.27963
 C1264 C 0.47581 0.84044 0.27372
 C1265 C -0.04394 0.89966 0.79359
 C1266 C -0.03712 0.88197 0.78663
 C1267 C -0.02976 0.86078 0.77914
 C1268 C -0.02402 0.84230 0.77336
 C1269 C -0.04345 -0.14919 -0.04257
 C1270 C -0.03676 -0.13137 -0.03577
 C1271 C -0.02952 -0.11006 -0.02845
 C1272 C -0.02388 -0.09151 -0.02279
 C1273 C -0.04444 0.35209 0.45602
 C1274 C -0.03787 0.36991 0.46292
 C1275 C -0.03064 0.39114 0.47047
 C1276 C -0.02482 0.40954 0.47646
 C1277 C 0.45524 -0.14728 0.45512
 C1278 C 0.46213 -0.12963 0.46216
 C1279 C 0.46972 -0.10857 0.46988
 C1280 C 0.47577 -0.09028 0.47600
 C1281 C 0.45563 0.35203 -0.04433
 C1282 C 0.46229 0.36984 -0.03747
 C1283 C 0.46960 0.39104 -0.02996
 C1284 C 0.47546 0.40943 -0.02399
 C1285 C 0.79510 0.39766 0.45635
 C1286 C 0.78803 0.38015 0.46351
 C1287 C 0.78037 0.35915 0.47121
 C1288 C 0.77439 0.34079 0.47713
 C1289 C 0.79241 0.89972 -0.04275
 C1290 C 0.78568 0.88198 -0.03586
 C1291 C 0.77845 0.86072 -0.02849
 C1292 C 0.77285 0.84217 -0.02283
 C1293 C 0.79397 0.29347 0.35169
 C1294 C 0.78697 0.28640 0.36924
 C1295 C 0.77943 0.27876 0.39029
 C1296 C 0.77359 0.27285 0.40867
 C1297 C 0.79291 0.79507 -0.14917
 C1298 C 0.78597 0.78802 -0.13156
 C1299 C 0.77849 0.78034 -0.11049
 C1300 C 0.77270 0.77435 -0.09209
 C1301 C 0.29588 0.45518 0.89698
 C1302 C 0.28892 0.46195 0.87927
 C1303 C 0.28126 0.46941 0.85818
 C1304 C 0.27516 0.47540 0.83988
 C1305 C 0.29334 -0.04290 0.39872
 C1306 C 0.28642 -0.03629 0.38094
 C1307 C 0.27894 -0.02918 0.35967
 C1308 C 0.27315 -0.02365 0.34114
 C1309 C -0.04401 -0.04281 -0.14902
 C1310 C -0.03695 -0.03601 -0.13135
 C1311 C -0.02934 -0.02868 -0.11018
 C1312 C -0.02345 -0.02299 -0.09171
 C1313 C -0.04518 0.45403 0.35333
 C1314 C -0.03811 0.46099 0.37094
 C1315 C -0.03040 0.46867 0.39195
 C1316 C -0.02430 0.47481 0.41020
 C1317 C 0.45598 -0.04458 0.35280
 C1318 C 0.46271 -0.03800 0.37068
 C1319 C 0.47010 -0.03075 0.39194
 C1320 C 0.47600 -0.02491 0.41035
 C1321 C 0.45486 0.45407 -0.14706
 C1322 C 0.46197 0.46102 -0.12946
 C1323 C 0.46974 0.46866 -0.10847
 C1324 C 0.47589 0.47476 -0.09022
 C1325 C 0.45548 0.79592 0.39689
 C1326 C 0.46223 0.78907 0.37913
 C1327 C 0.46964 0.78147 0.35800
 C1328 C 0.47557 0.77535 0.33969
 C1329 C -0.04254 0.79374 0.89960
 C1330 C -0.03579 0.78705 0.88178
 C1331 C -0.02855 0.77983 0.86047
 C1332 C -0.02295 0.77420 0.84191
 C1333 C 0.35245 0.79406 0.29417
 C1334 C 0.37032 0.78731 0.28767
 C1335 C 0.39159 0.77989 0.28050
 C1336 C 0.41000 0.77398 0.27473
 C1337 C -0.14933 0.79438 0.79382
 C1338 C -0.13169 0.78734 0.78695
 C1339 C -0.11058 0.77972 0.77951
 C1340 C -0.09217 0.77384 0.77372
 C1341 C 0.89884 0.29242 0.45640
 C1342 C 0.88130 0.28523 0.46329
 C1343 C 0.86025 0.27751 0.47072
 C1344 C 0.84185 0.27162 0.47649
 C1345 C 0.89898 0.79350 -0.04267
 C1346 C 0.88113 0.78671 -0.03614
 C1347 C 0.85981 0.77937 -0.02910
 C1348 C 0.84125 0.77366 -0.02360
 C1349 C -0.14942 -0.04215 -0.04315
 C1350 C -0.13165 -0.03539 -0.03636
 C1351 C -0.11038 -0.02816 -0.02902
 C1352 C -0.09184 -0.02258 -0.02331
 C1353 C -0.14689 0.45452 0.45469
 C1354 C -0.12917 0.46136 0.46156
 C1355 C -0.10808 0.46889 0.46916
 C1356 C -0.08980 0.47491 0.47525
 C1357 C 0.35252 -0.04338 0.45598
 C1358 C 0.37045 -0.03680 0.46251
 C1359 C 0.39179 -0.02960 0.46971
 C1360 C 0.41026 -0.02384 0.47549
 C1361 C 0.35331 0.45461 -0.04549
 C1362 C 0.37106 0.46141 -0.03865
 C1363 C 0.39218 0.46888 -0.03110
 C1364 C 0.41050 0.47486 -0.02505
 C1365 C 0.39693 0.45497 0.79592
 C1366 C 0.37934 0.46206 0.78899
 C1367 C 0.35836 0.46986 0.78136
 C1368 C 0.34014 0.47606 0.77527
 C1369 C 0.39872 -0.04317 0.29365
 C1370 C 0.38111 -0.03621 0.28666
 C1371 C 0.35999 -0.02878 0.27911
 C1372 C 0.34154 -0.02307 0.27325
 C1373 C 0.10132 0.54409 0.70757
 C1374 C 0.11904 0.53725 0.71445
 C1375 C 0.14024 0.52983 0.72183
 C1376 C 0.15873 0.52405 0.72754
 C1377 C 0.10286 0.04415 0.20468
 C1378 C 0.12057 0.03740 0.21162
 C1379 C 0.14169 0.02997 0.21924
 C1380 C 0.16001 0.02405 0.22530
 C1381 C 0.64874 0.70687 0.20650
 C1382 C 0.63107 0.71359 0.21355
 C1383 C 0.60991 0.72082 0.22117
 C1384 C 0.59145 0.72646 0.22705
 C1385 C 0.14637 0.70565 0.70521
 C1386 C 0.12861 0.71235 0.71208
 C1387 C 0.10749 0.71974 0.71964
 C1388 C 0.08917 0.72570 0.72567
 C1389 C 0.60210 0.20648 0.54311
 C1390 C 0.62008 0.21282 0.53654
 C1391 C 0.64148 0.21974 0.52934
 C1392 C 0.66001 0.22528 0.52360
 C1393 C 0.60195 0.70623 0.04312
 C1394 C 0.61980 0.71279 0.03637
 C1395 C 0.64106 0.72000 0.02899
 C1396 C 0.65948 0.72580 0.02314
 C1397 C 0.14699 0.04508 0.04486
 C1398 C 0.12935 0.03816 0.03787
 C1399 C 0.10831 0.03055 0.03021
 C1400 C 0.09003 0.02450 0.02415
 C1401 C 0.14916 0.54322 0.54260
 C1402 C 0.13142 0.53634 0.53582
 C1403 C 0.11019 0.52890 0.52856
 C1404 C 0.09168 0.52312 0.52294
 C1405 C 0.64896 0.04449 0.54329
 C1406 C 0.63131 0.03749 0.53639
 C1407 C 0.61018 0.02988 0.52897
 C1408 C 0.59175 0.02396 0.52322
 C1409 C 0.64930 0.54332 0.04264
 C1410 C 0.63163 0.53639 0.03575
 C1411 C 0.61045 0.52891 0.02835
 C1412 C 0.59198 0.52309 0.02264
 C1413 C 0.04545 0.04458 0.14715
 C1414 C 0.03865 0.03777 0.12938
 C1415 C 0.03113 0.03031 0.10823
 C1416 C 0.02507 0.02437 0.08989
 C1417 C 0.04330 0.54352 0.64917
 C1418 C 0.03654 0.53651 0.63146
 C1419 C 0.02923 0.52894 0.61027
 C1420 C 0.02351 0.52309 0.59180
 C1421 C 0.54283 0.04318 0.64968
 C1422 C 0.53618 0.03624 0.63190
 C1423 C 0.52903 0.02875 0.61063
 C1424 C 0.52345 0.02297 0.59209
 C1425 C 0.54303 0.54219 0.14929
 C1426 C 0.53644 0.53545 0.13142
 C1427 C 0.52930 0.52820 0.11007
 C1428 C 0.52371 0.52258 0.09149
 C1429 C 0.20728 0.54314 0.60087
 C1430 C 0.21404 0.53626 0.61862
 C1431 C 0.22132 0.52887 0.63986
 C1432 C 0.22699 0.52317 0.65839
 C1433 C 0.20429 0.04412 0.10250
 C1434 C 0.21129 0.03706 0.12008
 C1435 C 0.21899 0.02935 0.14107
 C1436 C 0.22514 0.02326 0.15932
 C1437 C 0.70624 0.20578 0.64795
 C1438 C 0.71285 0.21246 0.63009
 C1439 C 0.72011 0.21975 0.60882
 C1440 C 0.72593 0.22553 0.59038
 C1441 C 0.70555 0.70612 0.14700
 C1442 C 0.71206 0.71271 0.12907
 C1443 C 0.71927 0.71995 0.10775
 C1444 C 0.72508 0.72577 0.08932
 C1445 C 0.54324 0.70730 0.10075
 C1446 C 0.53638 0.71412 0.11847
 C1447 C 0.52894 0.72144 0.13968
 C1448 C 0.52316 0.72711 0.15817
 C1449 C 0.04493 0.70592 0.60330
 C1450 C 0.03808 0.71284 0.62100
 C1451 C 0.03052 0.72042 0.64208
 C1452 C 0.02447 0.72646 0.66037
 C1453 C 0.54247 0.60055 0.20735
 C1454 C 0.53570 0.61840 0.21396
 C1455 C 0.52844 0.63974 0.22111
 C1456 C 0.52282 0.65832 0.22669
 C1457 C 0.04347 0.60271 0.70645
 C1458 C 0.03666 0.62056 0.71302
 C1459 C 0.02920 0.64182 0.72025
 C1460 C 0.02329 0.66025 0.72604
 C1461 C 0.04450 0.14726 0.04540
 C1462 C 0.03760 0.12951 0.03865
 C1463 C 0.03004 0.10836 0.03120
 C1464 C 0.02402 0.09002 0.02524
 C1465 C 0.04369 0.64824 0.54451
 C1466 C 0.03652 0.63070 0.53750
 C1467 C 0.02880 0.60966 0.52991
 C1468 C 0.02286 0.59126 0.52402
 C1469 C 0.54284 0.14946 0.54263
 C1470 C 0.53599 0.13164 0.53604
 C1471 C 0.52866 0.11031 0.52895
 C1472 C 0.52302 0.09172 0.52343
 C1473 C 0.54297 0.64884 0.04281
 C1474 C 0.53607 0.63107 0.03610
 C1475 C 0.52864 0.60980 0.02888
 C1476 C 0.52291 0.59126 0.02326
 C1477 C 0.70488 0.10198 0.54454
 C1478 C 0.71165 0.11984 0.53796
 C1479 C 0.71914 0.14107 0.53068
 C1480 C 0.72515 0.15945 0.52482
 C1481 C 0.70657 0.60245 0.04375
 C1482 C 0.71316 0.62036 0.03714
 C1483 C 0.72039 0.64167 0.02986
 C1484 C 0.72617 0.66013 0.02404
 C1485 C 0.20583 0.64872 0.70599
 C1486 C 0.21303 0.63120 0.71301
 C1487 C 0.22081 0.61020 0.72060
 C1488 C 0.22682 0.59184 0.72649
 C1489 C 0.20572 0.14677 0.20477
 C1490 C 0.21236 0.12889 0.21138
 C1491 C 0.21965 0.10762 0.21869
 C1492 C 0.22548 0.08920 0.22458
 C1493 C 0.70657 1.14907 0.70608
 C1494 C 0.71340 1.13133 0.71290
 C1495 C 0.72074 1.11010 0.72030
 C1496 C 0.72642 1.09160 0.72607
 C1497 C 0.70718 0.64900 0.20624
 C1498 C 0.71411 0.63134 0.21318
 C1499 C 0.72153 0.61019 0.22069
 C1500 C 0.72727 0.59173 0.22654
 C1501 C 0.54266 0.10033 0.70597
 C1502 C 0.53590 0.11816 0.71266
 C1503 C 0.52863 0.13947 0.71995
 C1504 C 0.52299 0.15800 0.72570
 C1505 C 1.04376 0.10144 0.20520
 C1506 C 1.03666 0.11899 0.21224
 C1507 C 1.02902 0.14003 0.21986
 C1508 C 1.02313 0.15842 0.22579
 C1509 C 0.20664 0.60215 0.54350
 C1510 C 0.21328 0.62005 0.53693
 C1511 C 0.22054 0.64137 0.52973
 C1512 C 0.22631 0.65985 0.52397
 C1513 C 0.20431 0.10269 1.04464
 C1514 C 0.21132 0.12033 1.03776
 C1515 C 0.21902 0.14137 1.03020
 C1516 C 0.22515 0.15965 1.02418
 C1517 C 0.20451 0.70608 0.64700
 C1518 C 0.21134 0.71288 0.62927
 C1519 C 0.21887 0.72033 0.60815
 C1520 C 0.22489 0.72628 0.58983
 C1521 C 0.20557 0.20551 1.14713
 C1522 C 0.21215 0.21239 1.12934
 C1523 C 0.21937 0.21992 1.10815
 C1524 C 0.22515 0.22589 1.08977
 C1525 C 0.70734 0.54329 0.10103
 C1526 C 0.71413 0.53634 0.11874
 C1527 C 0.72144 0.52885 0.13995
 C1528 C 0.72713 0.52307 0.15844
 C1529 C 0.70618 1.04348 0.60093
 C1530 C 0.71304 1.03636 0.61854
 C1531 C 0.72043 1.02869 0.63966
 C1532 C 0.72618 1.02280 0.65811
 C1533 C 0.54310 0.20806 0.60034
 C1534 C 0.53629 0.21484 0.61809
 C1535 C 0.52893 0.22204 0.63935
 C1536 C 0.52323 0.22755 0.65790
 C1537 C 1.04465 0.20604 0.10155
 C1538 C 1.03764 0.21320 0.11908
 C1539 C 1.03004 0.22089 0.14009
 C1540 C 1.02411 0.22682 0.15846
 C1541 C 0.64896 0.20629 0.70692
 C1542 C 0.63126 0.21307 0.71383
 C1543 C 0.61006 0.22038 0.72128
 C1544 C 0.59158 0.22605 0.72703
 C1545 C 1.14884 0.20619 0.20658
 C1546 C 1.13132 0.21321 0.21370
 C1547 C 1.11029 0.22075 0.22131
 C1548 C 1.09189 0.22659 0.22714
 C1549 C 0.10310 0.70523 0.54508
 C1550 C 0.12084 0.71190 0.53815
 C1551 C 0.14195 0.71928 0.53052
 C1552 C 0.16025 0.72524 0.52445
 C1553 C 0.10288 0.20527 1.04501
 C1554 C 0.12060 0.21201 1.03810
 C1555 C 0.14171 0.21941 1.03051
 C1556 C 0.16002 0.22533 1.02446
 C1557 C 0.60093 0.54266 0.20780
 C1558 C 0.61878 0.53611 0.21459
 C1559 C 0.64013 0.52903 0.22188
 C1560 C 0.65871 0.52352 0.22752
 C1561 C 0.60028 1.04308 0.70708
 C1562 C 0.61806 1.03634 0.71389
 C1563 C 0.63933 1.02906 0.72121
 C1564 C 0.65786 1.02341 0.72690
 C1565 C 0.89690 0.45505 0.29633
 C1566 C 0.87931 0.46212 0.28940
 C1567 C 0.85832 0.46985 0.28175
 C1568 C 0.84009 0.47599 0.27563
 C1569 C 0.89710 0.95703 0.79495
 C1570 C 0.87919 0.96362 0.78836
 C1571 C 0.85788 0.97082 0.78106
 C1572 C 0.83944 0.97655 0.77518
 C1573 C 0.35291 0.29413 0.79452
 C1574 C 0.37067 0.28718 0.78792
 C1575 C 0.39182 0.27955 0.78066
 C1576 C 0.41017 0.27350 0.77481
 C1577 C 0.85310 0.29444 0.29459
 C1578 C 0.87088 0.28767 0.28790
 C1579 C 0.89206 0.28022 0.28054
 C1580 C 0.91041 0.27429 0.27463
 C1581 C 0.39834 0.79468 0.45602
 C1582 C 0.38084 0.78749 0.46306
 C1583 C 0.35986 0.77971 0.47066
 C1584 C 0.34152 0.77371 0.47655
 C1585 C 0.39865 0.29264 0.95622
 C1586 C 0.38109 0.28553 0.96314
 C1587 C 0.36002 0.27791 0.97059
 C1588 C 0.34160 0.27209 0.97637
 C1589 C 0.79567 0.45485 0.39713
 C1590 C 0.78871 0.46164 0.37943
 C1591 C 0.78104 0.46914 0.35834
 C1592 C 0.77495 0.47518 0.34006
 C1593 C 0.79311 0.95669 0.89792
 C1594 C 0.78650 0.96313 0.87996
 C1595 C 0.77926 0.97019 0.85859
 C1596 C 0.77348 0.97588 0.84010
 C1597 C 0.29314 0.79377 0.35114
 C1598 C 0.28614 0.78702 0.36882
 C1599 C 0.27860 0.77972 0.39000
 C1600 C 0.27278 0.77402 0.40846
 C1601 C 0.29349 0.29373 0.85135
 C1602 C 0.28634 0.28677 0.86888
 C1603 C 0.27865 0.27925 0.88992
 C1604 C 0.27273 0.27342 0.90831
 C1605 C 0.45585 0.29398 0.89723
 C1606 C 0.46254 0.28722 0.87942
 C1607 C 0.46987 0.27979 0.85822
 C1608 C 0.47572 0.27385 0.83984
 C1609 C 0.95627 0.29399 0.39760
 C1610 C 0.96304 0.28726 0.37982
 C1611 C 0.97043 0.27984 0.35863
 C1612 C 0.97629 0.27394 0.34024
 C1613 C 0.45491 0.39647 0.79558
 C1614 C 0.46183 0.37885 0.78853
 C1615 C 0.46947 0.35784 0.78081
 C1616 C 0.47554 0.33958 0.77466
 C1617 C 0.95477 0.39653 0.29583
 C1618 C 0.96160 0.37891 0.28867
 C1619 C 0.96911 0.35791 0.28080
 C1620 C 0.97512 0.33967 0.27454
 C1621 C 0.29341 0.89940 0.45731
 C1622 C 0.28653 0.88170 0.46417
 C1623 C 0.27910 0.86050 0.47151
 C1624 C 0.27334 0.84200 0.47717
 C1625 C 0.29513 0.39793 0.95608
 C1626 C 0.28799 0.38042 0.96314
 C1627 C 0.28024 0.35942 0.97075
 C1628 C 0.27420 0.34107 0.97661
 C1629 C 0.79478 0.35253 0.29435
 C1630 C 0.78798 0.37030 0.28757
 C1631 C 0.78054 0.39148 0.28014
 C1632 C 0.77461 0.40986 0.27423
   
