data_POSCAR
  _audit_creation_date              2014-09-24
  _audit_creation_method            'ToBaCCo'
  _symmetry_space_group_name_H-M    'P1'
  _symmetry_Int_Tables_number       1
  _symmetry_cell_setting            triclinic
  loop_
  _symmetry_equiv_pos_as_xyz
 x,y,z
_cell_length_a 102.5272
_cell_length_b 102.5272
_cell_length_c 102.5272
_cell_angle_alpha 90.000000
_cell_angle_beta 90.000000
_cell_angle_gamma 90.000000
loop_
  _atom_site_label
  _atom_site_type_symbol
  _atom_site_fract_x
  _atom_site_fract_y
  _atom_site_fract_z
C1 C 0.32246 0.42795 0.91035
 C2 C 0.33401 0.43332 0.91631
 C3 C 0.34010 0.42813 0.92795
 C4 C 0.33379 0.41676 0.93347
 C5 C 0.32234 0.41065 0.92805
 C6 C 0.31699 0.41660 0.91653
 H7 H 0.33847 0.44145 0.91141
 H8 H 0.33749 0.41271 0.94240
 H9 H 0.30839 0.41230 0.91227
 C10 C 0.42817 0.83963 0.42810
 C11 C 0.41673 0.83351 0.43351
 C12 C 0.41058 0.82215 0.42796
 C13 C 0.41659 0.81686 0.41642
 C14 C 0.42815 0.82220 0.41047
 C15 C 0.43357 0.83362 0.41660
 H16 H 0.41276 0.83745 0.44241
 H17 H 0.41199 0.80864 0.41175
 H18 H 0.44218 0.83790 0.41235
 C19 C 0.92810 0.91089 0.82233
 C20 C 0.91683 0.91712 0.81677
 C21 C 0.91071 0.92849 0.82227
 C22 C 0.91663 0.93374 0.83389
 C23 C 0.92810 0.92833 0.84013
 C24 C 0.93337 0.91677 0.83396
 H25 H 0.91294 0.91325 0.80780
 H26 H 0.91203 0.94217 0.83807
 H27 H 0.94154 0.91190 0.83837
 C28 C 0.42822 -0.08974 0.32190
 C29 C 0.43346 -0.08370 0.33354
 C30 C 0.42806 -0.07223 0.33963
 C31 C 0.41662 -0.06680 0.33359
 C32 C 0.41062 -0.07211 0.32207
 C33 C 0.41677 -0.08347 0.31652
 H34 H 0.44166 -0.08814 0.33834
 H35 H 0.41230 -0.05826 0.33793
 H36 H 0.41267 -0.08712 0.30759
 C37 C 0.82217 0.32202 0.33918
 C38 C 0.83374 0.31670 0.33324
 C39 C 0.83996 0.32221 0.32190
 C40 C 0.83399 0.33376 0.31656
 C41 C 0.82237 0.33969 0.32178
 C42 C 0.81676 0.33346 0.33306
 H43 H 0.83799 0.30810 0.33752
 H44 H 0.83870 0.33844 0.30840
 H45 H 0.80781 0.33737 0.33696
 C46 C -0.17859 0.83955 0.82148
 C47 C -0.16704 0.83340 0.81620
 C48 C -0.16090 0.82206 0.82174
 C49 C -0.16688 0.81674 0.83326
 C50 C -0.17852 0.82195 0.83927
 C51 C -0.18398 0.83334 0.83296
 H52 H -0.16262 0.83737 0.80757
 H53 H -0.16200 0.80863 0.83779
 H54 H -0.19294 0.83713 0.83678
 C55 C 0.92836 0.33994 0.42797
 C56 C 0.91699 0.33358 0.43343
 C57 C 0.91094 0.32213 0.42798
 C58 C 0.91695 0.31681 0.41646
 C59 C 0.92830 0.32233 0.41034
 C60 C 0.93360 0.33389 0.41633
 H61 H 0.91290 0.33726 0.44236
 H62 H 0.91270 0.30820 0.41219
 H63 H 0.94172 0.33840 0.41147
 C64 C 0.42764 0.42736 0.83986
 C65 C 0.43310 0.41597 0.83371
 C66 C 0.42777 0.41000 0.82215
 C67 C 0.41636 0.41615 0.81670
 C68 C 0.41017 0.42749 0.82226
 C69 C 0.41611 0.43272 0.83387
 H70 H 0.44167 0.41167 0.83800
 H71 H 0.41244 0.41225 0.80776
 H72 H 0.41147 0.44092 0.83855
 C73 C 0.82169 0.91086 0.92858
 C74 C 0.81632 0.91708 0.91709
 C75 C 0.82187 0.92839 0.91086
 C76 C 0.83348 0.93365 0.91672
 C77 C 0.83946 0.92835 0.92825
 C78 C 0.83327 0.91703 0.93384
 H79 H 0.80745 0.91335 0.91294
 H80 H 0.83814 0.94182 0.91202
 H81 H 0.83761 0.91316 0.94256
 C82 C 0.32197 0.84014 0.32191
 C83 C 0.31655 0.83392 0.33337
 C84 C 0.32198 0.82248 0.33947
 C85 C 0.33341 0.81704 0.33342
 C86 C 0.33947 0.82242 0.32197
 C87 C 0.33352 0.83397 0.31661
 H88 H 0.30768 0.83768 0.33750
 H89 H 0.33767 0.80843 0.33770
 H90 H 0.33834 0.83837 0.30841
 C91 C 0.82222 0.41081 0.42803
 C92 C 0.83367 0.41692 0.43345
 C93 C 0.83998 0.42829 0.42794
 C94 C 0.83389 0.43349 0.41631
 C95 C 0.82234 0.42814 0.41035
 C96 C 0.81686 0.41678 0.41652
 H97 H 0.83737 0.41286 0.44238
 H98 H 0.83836 0.44161 0.41142
 H99 H 0.80825 0.41249 0.41227
 C100 C 0.92817 0.83983 -0.07235
 C101 C 0.91688 0.83360 -0.06681
 C102 C 0.91076 0.82225 -0.07231
 C103 C 0.91667 0.81700 -0.08394
 C104 C 0.92813 0.82240 -0.09017
 C105 C 0.93342 0.83395 -0.08400
 H106 H 0.91299 0.83747 -0.05783
 H107 H 0.91205 0.80859 -0.08813
 H108 H 0.94159 0.83882 -0.08841
 C109 C 0.32222 0.33948 0.82172
 C110 C 0.31683 0.33345 0.83322
 C111 C 0.32225 0.32202 0.83934
 C112 C 0.33380 0.31669 0.83338
 C113 C 0.33980 0.32198 0.82183
 C114 C 0.33365 0.33335 0.81630
 H115 H 0.30823 0.33774 0.83749
 H116 H 0.33841 0.30846 0.83803
 H117 H 0.33762 0.33729 0.80740
 C118 C 0.16115 0.57151 0.57117
 C119 C 0.16711 0.56623 0.58276
 C120 C 0.17863 0.57158 0.58877
 C121 C 0.18408 0.58300 0.58265
 C122 C 0.17873 0.58901 0.57112
 C123 C 0.16733 0.58287 0.56566
 H124 H 0.16248 0.55800 0.58739
 H125 H 0.19266 0.58730 0.58694
 H126 H 0.16339 0.58681 0.55674
 C127 C 0.58971 0.67808 0.07195
 C128 C 0.58358 0.66665 0.06651
 C129 C 0.57209 0.66061 0.07191
 C130 C 0.56673 0.66667 0.08341
 C131 C 0.57218 0.67810 0.08951
 C132 C 0.58367 0.68347 0.08344
 H133 H 0.58784 0.66237 0.05791
 H134 H 0.55813 0.66241 0.08769
 H135 H 0.58800 0.69202 0.08776
 C136 C 0.67820 0.17770 0.66029
 C137 C 0.66671 0.18304 0.66632
 C138 C 0.66082 0.17776 0.67790
 C139 C 0.66698 0.16638 0.68339
 C140 C 0.67843 0.16012 0.67797
 C141 C 0.68372 0.16631 0.66642
 H142 H 0.66206 0.19127 0.66170
 H143 H 0.66285 0.16266 0.69227
 H144 H 0.69237 0.16237 0.66202
 C145 C 1.08942 0.07113 0.17893
 C146 C 1.08313 0.08255 0.18435
 C147 C 1.07171 0.08864 0.17887
 C148 C 1.06636 0.08262 0.16738
 C149 C 1.07182 0.07121 0.16130
 C150 C 1.08335 0.06586 0.16732
 H151 H 1.08681 0.08665 0.19326
 H152 H 1.05778 0.08689 0.16308
 H153 H 1.08780 0.05768 0.16250
 C154 C 0.07186 0.16055 1.07143
 C155 C 0.06650 0.16678 1.08293
 C156 C 0.07207 0.17810 1.08913
 C157 C 0.08368 0.18334 1.08325
 C158 C 0.08964 0.17802 1.07172
 C159 C 0.08344 0.16670 1.06615
 H160 H 0.05761 0.16310 1.08707
 H161 H 0.08835 0.19151 1.08794
 H162 H 0.08779 0.16278 1.05747
 C163 C 0.16108 0.67882 0.67871
 C164 C 0.16726 0.66746 0.68423
 C165 C 0.17866 0.66132 0.67877
 C166 C 0.18401 0.66732 0.66724
 C167 C 0.17856 0.67874 0.66111
 C168 C 0.16704 0.68409 0.66712
 H169 H 0.16332 0.66353 0.69316
 H170 H 0.19259 0.66302 0.66295
 H171 H 0.16240 0.69232 0.66249
 C172 C 1.17890 0.16049 0.17841
 C173 C 1.16742 0.16674 0.18379
 C174 C 1.16122 0.17806 0.17823
 C175 C 1.16710 0.18330 0.16662
 C176 C 1.17861 0.17797 0.16064
 C177 C 1.18416 0.16663 0.16682
 H178 H 1.16329 0.16305 0.19269
 H179 H 1.16242 0.19148 0.16195
 H180 H 1.19283 0.16270 0.16244
 C181 C 0.66076 1.07242 0.57179
 C182 C 0.66664 1.06714 0.58338
 C183 C 0.67814 1.07246 0.58940
 C184 C 0.68367 1.08384 0.58327
 C185 C 0.67840 1.09003 0.57171
 C186 C 0.66694 1.08379 0.56629
 H187 H 0.66197 1.05892 0.58800
 H188 H 0.69235 1.08775 0.58765
 H189 H 0.66278 1.08753 0.55743
 C190 C 0.57153 0.57168 0.16085
 C191 C 0.56619 0.58322 0.16684
 C192 C 0.57162 0.58933 0.17828
 C193 C 0.58306 0.58323 0.18372
 C194 C 0.58907 0.57170 0.17838
 C195 C 0.58297 0.56626 0.16695
 H196 H 0.55763 0.58753 0.16252
 H197 H 0.58738 0.58754 0.19228
 H198 H 0.58721 0.55763 0.16271
 C199 C 0.66047 0.67817 0.17772
 C200 C 0.66674 0.66689 0.18329
 C201 C 0.67818 0.66080 0.17785
 C202 C 0.68348 0.66678 0.16628
 C203 C 0.67793 0.67813 0.16010
 C204 C 0.66637 0.68342 0.16609
 H205 H 0.66285 0.66299 0.19225
 H206 H 0.69208 0.66252 0.16201
 H207 H 0.66167 0.69158 0.16140
 C208 C 0.16080 0.07159 1.07142
 C209 C 0.16690 0.06630 1.08301
 C210 C 0.17841 0.07165 1.08905
 C211 C 0.18382 0.08312 1.08303
 C212 C 0.17845 0.08918 1.07156
 C213 C 0.16706 0.08306 1.06605
 H214 H 0.16248 0.05808 1.08779
 H215 H 0.19239 0.08741 1.08735
 H216 H 0.16334 0.08719 1.05716
 C217 C 0.58962 0.17832 0.57167
 C218 C 0.58359 0.18370 0.58316
 C219 C 0.57194 0.17848 0.58905
 C220 C 0.56639 0.16717 0.58284
 C221 C 0.57187 0.16101 0.57147
 C222 C 0.58346 0.16694 0.56618
 H223 H 0.58825 0.19189 0.58783
 H224 H 0.55741 0.16330 0.58673
 H225 H 0.58777 0.16262 0.55762
 C226 C 0.08877 0.57152 0.67869
 C227 C 0.08264 0.56605 0.66729
 C228 C 0.07130 0.57156 0.66109
 C229 C 0.06602 0.58316 0.66702
 C230 C 0.07135 0.58919 0.67854
 C231 C 0.08276 0.58306 0.68402
 H232 H 0.08657 0.55711 0.66337
 H233 H 0.05780 0.58779 0.66236
 H234 H 0.08705 0.58736 0.69260
 C235 C 0.66086 0.57194 0.07139
 C236 C 0.66694 0.58341 0.06598
 C237 C 0.67845 0.58944 0.07135
 C238 C 0.68393 0.58328 0.08273
 C239 C 0.67845 0.57189 0.08887
 C240 C 0.66689 0.56659 0.08290
 H241 H 0.66263 0.58771 0.05741
 H242 H 0.69284 0.58723 0.08669
 H243 H 0.66228 0.55834 0.08752
 C244 C 0.07127 0.67879 0.58879
 C245 C 0.06587 0.66731 0.58273
 C246 C 0.07126 0.66122 0.57127
 C247 C 0.08274 0.66728 0.56586
 C248 C 0.08881 0.67876 0.57125
 C249 C 0.08274 0.68418 0.58271
 H250 H 0.05729 0.66303 0.58704
 H251 H 0.08703 0.66298 0.55728
 H252 H 0.08703 0.69276 0.58699
 C253 C 0.57159 1.07159 0.66052
 C254 C 0.58323 1.06639 0.66656
 C255 C 0.58920 1.07176 0.67807
 C256 C 0.58305 1.08310 0.68358
 C257 C 0.57150 1.08923 0.67829
 C258 C 0.56612 1.08299 0.66681
 H259 H 0.58811 1.05827 0.66207
 H260 H 0.58747 1.08710 0.69220
 H261 H 0.55717 1.08679 0.66298
 C262 C 0.42846 0.33982 0.92803
 C263 C 0.43378 0.33368 0.91647
 C264 C 0.42829 0.32229 0.91031
 C265 C 0.41679 0.31693 0.91629
 C266 C 0.41087 0.32217 0.92788
 C267 C 0.41701 0.33354 0.93342
 H268 H 0.44242 0.33766 0.91208
 H269 H 0.41215 0.30872 0.91163
 H270 H 0.41287 0.33722 0.94231
 C271 C 0.92758 0.42738 0.33986
 C272 C 0.91605 0.43273 0.33387
 C273 C 0.91010 0.42748 0.32227
 C274 C 0.91628 0.41614 0.31672
 C275 C 0.92770 0.41000 0.32215
 C276 C 0.93305 0.41598 0.33370
 H277 H 0.91141 0.44094 0.33853
 H278 H 0.91234 0.41223 0.30778
 H279 H 0.94163 0.41168 0.33797
 C280 C 0.32275 0.92799 0.40974
 C281 C 0.31749 0.91643 0.41587
 C282 C 0.32278 0.91051 0.42744
 C283 C 0.33412 0.91667 0.43297
 C284 C 0.34036 0.92811 0.42757
 C285 C 0.33423 0.93339 0.41598
 H286 H 0.30933 0.91156 0.41143
 H287 H 0.33780 0.91257 0.44188
 H288 H 0.33847 0.94192 0.41172
 O289 O 0.21477 0.51791 0.74784
 O290 O 0.21932 0.51419 0.77136
 O291 O 0.24772 0.53526 0.73220
 O292 O 0.27038 0.53172 0.73529
 O293 O 0.23231 0.50225 0.71462
 O294 O 0.23534 0.47856 0.71926
 O295 O 0.28453 0.49747 0.76864
 O296 O 0.28088 0.52087 0.76445
 O297 O 0.25289 0.48123 0.78429
 O298 O 0.22783 0.48497 0.77953
 O299 O 0.26860 0.46553 0.75256
 O300 O 0.26562 0.47007 0.72795
 O301 O 0.28456 0.48181 0.75295
 O302 O 0.28024 0.48536 0.72802
 O303 O 0.25282 0.46525 0.76810
 O304 O 0.22979 0.46820 0.76428
 O305 O 0.26837 0.49706 0.78454
 O306 O 0.26305 0.52118 0.78065
 O307 O 0.21503 0.50251 0.73181
 O308 O 0.21983 0.47827 0.73450
 O309 O 0.24780 0.51816 0.71490
 O310 O 0.27179 0.51467 0.71985
 O311 O 0.23177 0.53493 0.74765
 O312 O 0.23635 0.53011 0.77157
 Zr313 Zr 0.23384 0.51590 0.75679
 O314 O 0.24572 0.50392 0.76953
 Zr315 Zr 0.25682 0.51624 0.73397
 O316 O 0.26960 0.50433 0.74590
 Zr317 Zr 0.23402 0.49322 0.73370
 O318 O 0.24592 0.48040 0.74557
 Zr319 Zr 0.26583 0.50685 0.76602
 O320 O 0.25402 0.51988 0.75416
 Zr321 Zr 0.24316 0.48382 0.76571
 O322 O 0.23013 0.49569 0.75388
 Zr323 Zr 0.26607 0.48420 0.74300
 O324 O 0.25419 0.49607 0.73005
 O325 O 0.23736 0.51266 0.73728
 O326 O 0.26272 0.48725 0.76260
 C327 C 0.20938 0.51225 0.73779
 C328 C 0.23768 0.54062 0.73791
 C329 C 0.23803 0.51227 0.70924
 C330 C 0.28990 0.48741 0.76303
 C331 C 0.26285 0.48690 0.78977
 C332 C 0.26296 0.46002 0.76252
 H333 H 0.24372 0.50592 0.77875
 H334 H 0.24384 0.47119 0.74358
 H335 H 0.23184 0.51819 0.73174
 H336 H 0.27884 0.50640 0.74409
 H337 H 0.27659 0.52915 0.76197
 H338 H 0.27849 0.52810 0.73905
 H339 H 0.22201 0.47170 0.75979
 H340 H 0.21348 0.48082 0.74132
 H341 H 0.27076 0.52083 0.78648
 H342 H 0.22880 0.53613 0.77113
 H343 H 0.25904 0.46343 0.73031
 H344 H 0.24402 0.47955 0.71517
 H345 H 0.21482 0.50579 0.76981
 H346 H 0.23094 0.49024 0.78699
 H347 H 0.27010 0.50654 0.71492
 H348 H 0.28727 0.49125 0.73102
 O349 O 0.21508 0.01825 0.24796
 O350 O 0.21971 0.01460 0.27153
 O351 O 0.24792 0.03513 0.23195
 O352 O 0.27062 0.03151 0.23502
 O353 O 0.23221 0.00217 0.21484
 O354 O 0.23514 -0.02153 0.21963
 O355 O 0.28485 -0.00248 0.26845
 O356 O 0.28123 0.02088 0.26417
 O357 O 0.25301 -0.01836 0.28462
 O358 O 0.22802 -0.01464 0.27984
 O359 O 0.26845 -0.03461 0.25267
 O360 O 0.26553 -0.03017 0.22816
 O361 O 0.28458 -0.01840 0.25302
 O362 O 0.28013 -0.01490 0.22802
 O363 O 0.25305 -0.03446 0.26858
 O364 O 0.22994 -0.03157 0.26478
 O365 O 0.26890 -0.00294 0.28442
 O366 O 0.26359 0.02128 0.28057
 O367 O 0.21502 0.00256 0.23222
 O368 O 0.21975 -0.02165 0.23496
 O369 O 0.24784 0.01794 0.21487
 O370 O 0.27184 0.01431 0.21968
 O371 O 0.23218 0.03511 0.24762
 O372 O 0.23687 0.03042 0.27153
 Zr373 Zr 0.23417 0.01613 0.25687
 O374 O 0.24606 0.00417 0.26963
 Zr375 Zr 0.25697 0.01609 0.23388
 O376 O 0.26976 0.00419 0.24582
 Zr377 Zr 0.23400 -0.00677 0.23397
 O378 O 0.24590 -0.01956 0.24587
 Zr379 Zr 0.26616 0.00690 0.26594
 O380 O 0.25436 0.01993 0.25406
 Zr381 Zr 0.24332 -0.01595 0.26600
 O382 O 0.23029 -0.00409 0.25416
 Zr383 Zr 0.26606 -0.01594 0.24311
 O384 O 0.25416 -0.00409 0.23015
 O385 O 0.23752 0.01267 0.23737
 O386 O 0.26289 -0.01269 0.26270
 C387 C 0.20953 0.01246 0.23807
 C388 C 0.23800 0.04063 0.23773
 C389 C 0.23798 0.01210 0.20934
 C390 C 0.29008 -0.01267 0.26295
 C391 C 0.26321 -0.01289 0.28988
 C392 C 0.26298 -0.03990 0.26284
 H393 H 0.24415 0.00626 0.27885
 H394 H 0.24375 -0.02877 0.24398
 H395 H 0.23199 0.01819 0.23182
 H396 H 0.27900 0.00618 0.24391
 H397 H 0.27693 0.02917 0.26169
 H398 H 0.27874 0.02786 0.23874
 H399 H 0.22216 -0.02811 0.26025
 H400 H 0.21349 -0.01906 0.24184
 H401 H 0.27134 0.02086 0.28634
 H402 H 0.22934 0.03648 0.27111
 H403 H 0.25860 -0.03651 0.23037
 H404 H 0.24377 -0.02059 0.21542
 H405 H 0.21508 0.00627 0.27000
 H406 H 0.23108 -0.00911 0.28714
 H407 H 0.27004 0.00617 0.21481
 H408 H 0.28733 -0.00923 0.23104
 O409 O 0.49797 0.76864 0.28488
 O410 O 0.52150 0.76519 0.28028
 O411 O 0.48167 0.78520 0.25215
 O412 O 0.48465 0.78154 0.22943
 O413 O 0.46507 0.75261 0.26835
 O414 O 0.46982 0.72854 0.26556
 O415 O 0.51845 0.74768 0.21527
 O416 O 0.51413 0.77095 0.21875
 O417 O 0.53456 0.73182 0.24714
 O418 O 0.53020 0.73506 0.27182
 O419 O 0.50266 0.71556 0.23161
 O420 O 0.47973 0.71858 0.23517
 O421 O 0.50303 0.73177 0.21554
 O422 O 0.47780 0.73553 0.22028
 O423 O 0.51845 0.71571 0.24714
 O424 O 0.51505 0.72026 0.27197
 O425 O 0.53446 0.74735 0.23136
 O426 O 0.53040 0.77160 0.23647
 O427 O 0.48255 0.75263 0.28525
 O428 O 0.48560 0.72874 0.28057
 O429 O 0.46469 0.76789 0.25225
 O430 O 0.46959 0.76421 0.22821
 O431 O 0.49753 0.78543 0.26770
 O432 O 0.52145 0.78079 0.26287
 Zr433 Zr 0.50684 0.76649 0.26580
 O434 O 0.51960 0.75443 0.25404
 Zr435 Zr 0.48372 0.76614 0.24312
 O436 O 0.49577 0.75431 0.23036
 Zr437 Zr 0.48406 0.74344 0.26620
 O438 O 0.49584 0.73062 0.25422
 Zr439 Zr 0.51590 0.75709 0.23393
 O440 O 0.50391 0.77013 0.24562
 Zr441 Zr 0.51599 0.73430 0.25685
 O442 O 0.50423 0.74631 0.26974
 Zr443 Zr 0.49313 0.73419 0.23408
 O444 O 0.48005 0.74593 0.24603
 O445 O 0.48736 0.76288 0.26257
 O446 O 0.51271 0.73749 0.23726
 C447 C 0.48824 0.76271 0.29057
 C448 C 0.48751 0.79082 0.26198
 C449 C 0.45937 0.76230 0.26237
 C450 C 0.51295 0.73749 0.21004
 C451 C 0.53988 0.73736 0.23703
 C452 C 0.51277 0.71026 0.23717
 H453 H 0.52882 0.75655 0.25592
 H454 H 0.49371 0.72142 0.25614
 H455 H 0.48184 0.76840 0.26813
 H456 H 0.49385 0.75626 0.22112
 H457 H 0.51154 0.77924 0.22297
 H458 H 0.48864 0.77797 0.22141
 H459 H 0.50905 0.71325 0.26915
 H460 H 0.49406 0.73013 0.28501
 H461 H 0.53624 0.77114 0.22878
 H462 H 0.52104 0.78694 0.27033
 H463 H 0.47213 0.72190 0.24009
 H464 H 0.46358 0.73096 0.25860
 H465 H 0.52039 0.75661 0.28456
 H466 H 0.53686 0.74155 0.26925
 H467 H 0.46453 0.75623 0.23022
 H468 H 0.48105 0.74057 0.21272
 O469 O 0.03496 0.73217 0.74783
 O470 O 0.03044 0.73571 0.77134
 O471 O 0.00207 0.71526 0.73191
 O472 O -0.02059 0.71892 0.73486
 O473 O 0.01796 0.74803 0.71480
 O474 O 0.01527 0.77205 0.71957
 O475 O -0.03470 0.75282 0.76852
 O476 O -0.03104 0.72953 0.76437
 O477 O -0.00275 0.76894 0.78443
 O478 O 0.02195 0.76573 0.77988
 O479 O -0.01872 0.78484 0.75279
 O480 O -0.01508 0.78196 0.72974
 O481 O -0.03464 0.76858 0.75294
 O482 O -0.02988 0.76493 0.72778
 O483 O -0.00278 0.78507 0.76816
 O484 O 0.02193 0.78052 0.76480
 O485 O -0.01857 0.75344 0.78440
 O486 O -0.01327 0.72918 0.78059
 O487 O 0.03513 0.74804 0.73226
 O488 O 0.03037 0.77192 0.73518
 O489 O 0.00216 0.73243 0.71478
 O490 O -0.02189 0.73615 0.71971
 O491 O 0.01789 0.71531 0.74750
 O492 O 0.01315 0.71999 0.77143
 Zr493 Zr 0.01590 0.73426 0.75676
 O494 O 0.00415 0.74632 0.76953
 Zr495 Zr -0.00693 0.73434 0.73381
 O496 O -0.01968 0.74618 0.74585
 Zr497 Zr 0.01604 0.75717 0.73383
 O498 O 0.00407 0.76998 0.74564
 Zr499 Zr -0.01597 0.74353 0.76596
 O500 O -0.00428 0.73049 0.75399
 Zr501 Zr 0.00686 0.76643 0.76579
 O502 O 0.01973 0.75444 0.75399
 Zr503 Zr -0.01607 0.76630 0.74310
 O504 O -0.00416 0.75455 0.73000
 O505 O 0.01254 0.73773 0.73726
 O506 O -0.01274 0.76313 0.76267
 C507 C 0.04057 0.73806 0.73802
 C508 C 0.01202 0.70976 0.73765
 C509 C 0.01209 0.73818 0.70927
 C510 C -0.04005 0.76290 0.76294
 C511 C -0.01287 0.76344 0.78978
 C512 C -0.01297 0.79032 0.76270
 H513 H 0.00610 0.74425 0.77874
 H514 H 0.00593 0.77919 0.74345
 H515 H 0.01809 0.73220 0.73174
 H516 H -0.02892 0.74417 0.74399
 H517 H -0.02676 0.72126 0.76182
 H518 H -0.02859 0.72249 0.73889
 H519 H 0.01925 0.78730 0.75848
 H520 H 0.03483 0.77063 0.74364
 H521 H -0.02094 0.72965 0.78646
 H522 H 0.02064 0.71390 0.77101
 H523 H -0.01019 0.77868 0.72211
 H524 H 0.00822 0.76966 0.71343
 H525 H 0.03471 0.74429 0.77014
 H526 H 0.01937 0.75938 0.78667
 H527 H -0.01990 0.74407 0.71457
 H528 H -0.03729 0.75962 0.73094
 O529 O 0.03537 0.01834 0.00219
 O530 O 0.03080 0.01463 -0.02139
 O531 O 0.00256 0.03524 0.01812
 O532 O -0.02014 0.03169 0.01499
 O533 O 0.01813 0.00224 0.03528
 O534 O 0.01522 -0.02143 0.03048
 O535 O -0.03439 -0.00232 -0.01844
 O536 O -0.03074 0.02103 -0.01418
 O537 O -0.00255 -0.01829 -0.03451
 O538 O 0.02245 -0.01458 -0.02971
 O539 O -0.01819 -0.03437 -0.00276
 O540 O -0.01509 -0.03003 0.02188
 O541 O -0.03424 -0.01814 -0.00292
 O542 O -0.02976 -0.01482 0.02202
 O543 O -0.00251 -0.03444 -0.01839
 O544 O 0.02052 -0.03148 -0.01462
 O545 O -0.01836 -0.00279 -0.03439
 O546 O -0.01304 0.02141 -0.03052
 O547 O 0.03538 0.00267 0.01795
 O548 O 0.03062 -0.02156 0.01517
 O549 O 0.00254 0.01805 0.03521
 O550 O -0.02145 0.01450 0.03034
 O551 O 0.01829 0.03521 0.00244
 O552 O 0.01367 0.03047 -0.02147
 Zr553 Zr 0.01631 0.01620 -0.00677
 O554 O 0.00443 0.00425 -0.01953
 Zr555 Zr -0.00654 0.01623 0.01617
 O556 O -0.01933 0.00436 0.00422
 Zr557 Zr 0.01639 -0.00667 0.01615
 O558 O 0.00448 -0.01945 0.00425
 Zr559 Zr -0.01568 0.00704 -0.01590
 O560 O -0.00388 0.02005 -0.00400
 Zr561 Zr 0.00713 -0.01587 -0.01589
 O562 O 0.02015 -0.00402 -0.00403
 Zr563 Zr -0.01568 -0.01578 0.00694
 O564 O -0.00378 -0.00395 0.01992
 O565 O 0.01291 0.01278 0.01273
 O566 O -0.01245 -0.01257 -0.01265
 C567 C 0.04089 0.01256 0.01211
 C568 C 0.01248 0.04074 0.01233
 C569 C 0.01237 0.01217 0.04077
 C570 C -0.03969 -0.01244 -0.01289
 C571 C -0.01269 -0.01277 -0.03981
 C572 C -0.01259 -0.03977 -0.01279
 H573 H 0.00636 0.00633 -0.02875
 H574 H 0.00660 -0.02866 0.00615
 H575 H 0.01843 0.01829 0.01829
 H576 H -0.02857 0.00637 0.00610
 H577 H -0.02643 0.02931 -0.01169
 H578 H -0.02826 0.02806 0.01125
 H579 H 0.02829 -0.02801 -0.01009
 H580 H 0.03693 -0.01895 0.00834
 H581 H -0.02077 0.02100 -0.03632
 H582 H 0.02120 0.03652 -0.02104
 H583 H -0.00849 -0.03662 0.01941
 H584 H 0.00654 -0.02054 0.03461
 H585 H 0.03543 0.00631 -0.01982
 H586 H 0.01939 -0.00909 -0.03703
 H587 H -0.01972 0.00633 0.03518
 H588 H -0.03681 -0.00890 0.01913
 O589 O 0.03501 0.51817 0.50203
 O590 O 0.03048 0.51465 0.47853
 O591 O 0.00212 0.53504 0.51800
 O592 O -0.02053 0.53137 0.51512
 O593 O 0.01818 0.50235 0.53498
 O594 O 0.01535 0.47831 0.53031
 O595 O -0.03458 0.49740 0.48128
 O596 O -0.03104 0.52072 0.48554
 O597 O -0.00283 0.48128 0.46553
 O598 O 0.02194 0.48465 0.46993
 O599 O -0.01863 0.46545 0.49713
 O600 O -0.01502 0.46836 0.52016
 O601 O -0.03458 0.48172 0.49694
 O602 O -0.02981 0.48538 0.52212
 O603 O -0.00275 0.46525 0.48170
 O604 O 0.02198 0.46980 0.48505
 O605 O -0.01845 0.49697 0.46541
 O606 O -0.01322 0.52120 0.46936
 O607 O 0.03521 0.50227 0.51757
 O608 O 0.03043 0.47837 0.51462
 O609 O 0.00217 0.51773 0.53519
 O610 O -0.02186 0.51412 0.53017
 O611 O 0.01790 0.53502 0.50237
 O612 O 0.01315 0.53033 0.47844
 Zr613 Zr 0.01594 0.51606 0.49312
 O614 O 0.00420 0.50400 0.48034
 Zr615 Zr -0.00686 0.51595 0.51611
 O616 O -0.01962 0.50412 0.50404
 Zr617 Zr 0.01612 0.49314 0.51601
 O618 O 0.00413 0.48032 0.50423
 Zr619 Zr -0.01591 0.50679 0.48393
 O620 O -0.00424 0.51982 0.49592
 Zr621 Zr 0.00691 0.48388 0.48408
 O622 O 0.01979 0.49589 0.49586
 Zr623 Zr -0.01601 0.48400 0.50679
 O624 O -0.00407 0.49574 0.51989
 O625 O 0.01260 0.51259 0.51261
 O626 O -0.01268 0.48719 0.48722
 C627 C 0.04063 0.51228 0.51183
 C628 C 0.01205 0.54055 0.51223
 C629 C 0.01222 0.51208 0.54061
 C630 C -0.03995 0.48735 0.48689
 C631 C -0.01287 0.48687 0.46012
 C632 C -0.01292 0.45999 0.48719
 H633 H 0.00615 0.50607 0.47113
 H634 H 0.00600 0.47112 0.50642
 H635 H 0.01814 0.51812 0.51813
 H636 H -0.02886 0.50613 0.50590
 H637 H -0.02680 0.52901 0.48810
 H638 H -0.02849 0.52784 0.51099
 H639 H 0.01929 0.46300 0.49134
 H640 H 0.03493 0.47970 0.50618
 H641 H -0.02088 0.52076 0.46349
 H642 H 0.02063 0.53644 0.47887
 H643 H -0.01005 0.47162 0.52775
 H644 H 0.00833 0.48075 0.53647
 H645 H 0.03472 0.50605 0.47969
 H646 H 0.01920 0.49081 0.46303
 H647 H -0.01990 0.50618 0.53529
 H648 H -0.03724 0.49066 0.51894
 O649 O 0.53504 0.01851 0.50217
 O650 O 0.53052 0.01495 0.47863
 O651 O 0.50229 0.03518 0.51826
 O652 O 0.47958 0.03158 0.51518
 O653 O 0.51814 0.00231 0.53520
 O654 O 0.51533 -0.02137 0.53045
 O655 O 0.46547 -0.00254 0.48154
 O656 O 0.46895 0.02082 0.48581
 O657 O 0.49747 -0.01829 0.46548
 O658 O 0.52203 -0.01523 0.46996
 O659 O 0.48170 -0.03445 0.49739
 O660 O 0.48476 -0.03003 0.52200
 O661 O 0.46562 -0.01830 0.49712
 O662 O 0.47009 -0.01483 0.52208
 O663 O 0.49741 -0.03450 0.48178
 O664 O 0.52225 -0.02979 0.48517
 O665 O 0.48146 -0.00300 0.46570
 O666 O 0.48666 0.02131 0.46952
 O667 O 0.53532 0.00258 0.51769
 O668 O 0.53062 -0.02136 0.51469
 O669 O 0.50237 0.01795 0.53528
 O670 O 0.47833 0.01432 0.53041
 O671 O 0.51785 0.03534 0.50242
 O672 O 0.51316 0.03058 0.47853
 Zr673 Zr 0.51599 0.01634 0.49323
 O674 O 0.50423 0.00426 0.48048
 Zr675 Zr 0.49324 0.01616 0.51625
 O676 O 0.48047 0.00427 0.50427
 Zr677 Zr 0.51626 -0.00663 0.51608
 O678 O 0.50434 -0.01950 0.50429
 Zr679 Zr 0.48411 0.00693 0.48414
 O680 O 0.49579 0.02003 0.49606
 Zr681 Zr 0.50704 -0.01585 0.48415
 O682 O 0.51989 -0.00382 0.49593
 Zr683 Zr 0.48417 -0.01584 0.50700
 O684 O 0.49610 -0.00401 0.51995
 O685 O 0.51270 0.01282 0.51273
 O686 O 0.48743 -0.01266 0.48741
 C687 C 0.54069 0.01262 0.51196
 C688 C 0.51210 0.04077 0.51240
 C689 C 0.51231 0.01217 0.54076
 C690 C 0.46019 -0.01266 0.48710
 C691 C 0.48725 -0.01289 0.46023
 C692 C 0.48734 -0.03984 0.48738
 H693 H 0.50612 0.00636 0.47126
 H694 H 0.50640 -0.02868 0.50634
 H695 H 0.51824 0.01833 0.51827
 H696 H 0.47123 0.00626 0.50615
 H697 H 0.47318 0.02912 0.48835
 H698 H 0.47153 0.02796 0.51129
 H699 H 0.51941 -0.03689 0.49105
 H700 H 0.53514 -0.01998 0.50627
 H701 H 0.47897 0.02080 0.46368
 H702 H 0.52063 0.03670 0.47894
 H703 H 0.49131 -0.03666 0.51955
 H704 H 0.50661 -0.02063 0.53454
 H705 H 0.53482 0.00639 0.47983
 H706 H 0.51969 -0.00849 0.46347
 H707 H 0.48018 0.00621 0.53531
 H708 H 0.46294 -0.00908 0.51910
 O709 O 0.53509 0.51806 0.00209
 O710 O 0.53059 0.51448 -0.02145
 O711 O 0.50226 0.53511 0.01792
 O712 O 0.47958 0.53154 0.01479
 O713 O 0.51783 0.50210 0.03518
 O714 O 0.51497 0.47844 0.03048
 O715 O 0.46550 0.49734 -0.01874
 O716 O 0.46903 0.52070 -0.01452
 O717 O 0.49722 0.48120 -0.03442
 O718 O 0.52198 0.48458 -0.03002
 O719 O 0.48152 0.46539 -0.00272
 O720 O 0.48447 0.46994 0.02193
 O721 O 0.46549 0.48167 -0.00307
 O722 O 0.46985 0.48514 0.02186
 O723 O 0.49730 0.46522 -0.01824
 O724 O 0.52207 0.46980 -0.01488
 O725 O 0.48164 0.49693 -0.03460
 O726 O 0.48686 0.52113 -0.03071
 O727 O 0.53517 0.50225 0.01773
 O728 O 0.53038 0.47835 0.01486
 O729 O 0.50223 0.51792 0.03505
 O730 O 0.47821 0.51438 0.03011
 O731 O 0.51812 0.53496 0.00238
 O732 O 0.51336 0.53027 -0.02157
 Zr733 Zr 0.51605 0.51601 -0.00688
 O734 O 0.50428 0.50395 -0.01964
 Zr735 Zr 0.49318 0.51608 0.01600
 O736 O 0.48042 0.50418 0.00402
 Zr737 Zr 0.51607 0.49314 0.01608
 O738 O 0.50415 0.48027 0.00427
 Zr739 Zr 0.48416 0.50676 -0.01610
 O740 O 0.49587 0.51984 -0.00419
 Zr741 Zr 0.50695 0.48384 -0.01587
 O742 O 0.51982 0.49583 -0.00407
 Zr743 Zr 0.48401 0.48405 0.00686
 O744 O 0.49590 0.49590 0.01981
 O745 O 0.51264 0.51259 0.01262
 O746 O 0.48736 0.48716 -0.01273
 C747 C 0.54064 0.51221 0.01194
 C748 C 0.51226 0.54054 0.01221
 C749 C 0.51206 0.51206 0.04064
 C750 C 0.46013 0.48728 -0.01314
 C751 C 0.48720 0.48680 -0.03986
 C752 C 0.48718 0.45993 -0.01269
 H753 H 0.50624 0.50600 -0.02886
 H754 H 0.50616 0.47109 0.00636
 H755 H 0.51818 0.51808 0.01818
 H756 H 0.47118 0.50622 0.00585
 H757 H 0.47328 0.52900 -0.01200
 H758 H 0.47151 0.52793 0.01093
 H759 H 0.51931 0.46288 -0.00875
 H760 H 0.53486 0.47958 0.00639
 H761 H 0.47918 0.52070 -0.03656
 H762 H 0.52087 0.53634 -0.02114
 H763 H 0.49094 0.46321 0.01951
 H764 H 0.50624 0.47924 0.03452
 H765 H 0.53486 0.50591 -0.02020
 H766 H 0.51924 0.49070 -0.03695
 H767 H 0.47997 0.50626 0.03503
 H768 H 0.46281 0.49104 0.01889
 O769 O 0.76862 0.28509 0.49782
 O770 O 0.76511 0.28051 0.52136
 O771 O 0.78536 0.25227 0.48173
 O772 O 0.78169 0.22960 0.48461
 O773 O 0.75267 0.26840 0.46492
 O774 O 0.72862 0.26559 0.46963
 O775 O 0.74775 0.21546 0.51843
 O776 O 0.77108 0.21901 0.51416
 O777 O 0.73189 0.24742 0.53450
 O778 O 0.73498 0.27204 0.52998
 O779 O 0.71582 0.23152 0.50273
 O780 O 0.71866 0.23524 0.47970
 O781 O 0.73204 0.21554 0.50279
 O782 O 0.73564 0.22041 0.47765
 O783 O 0.71566 0.24738 0.51818
 O784 O 0.72027 0.27214 0.51487
 O785 O 0.74724 0.23146 0.53428
 O786 O 0.77154 0.23674 0.53044
 O787 O 0.75266 0.28536 0.48233
 O788 O 0.72876 0.28063 0.48537
 O789 O 0.76803 0.25237 0.46461
 O790 O 0.76441 0.22832 0.46957
 O791 O 0.78541 0.26800 0.49742
 O792 O 0.78079 0.26315 0.52135
 Zr793 Zr 0.76648 0.26602 0.50673
 O794 O 0.75443 0.25424 0.51949
 Zr795 Zr 0.76628 0.24328 0.48367
 O796 O 0.75445 0.23050 0.49571
 Zr797 Zr 0.74350 0.26630 0.48389
 O798 O 0.73070 0.25430 0.49568
 Zr799 Zr 0.75715 0.23413 0.51583
 O800 O 0.77019 0.24583 0.50386
 Zr801 Zr 0.73431 0.25702 0.51583
 O802 O 0.74631 0.26991 0.50406
 Zr803 Zr 0.73434 0.23416 0.49303
 O804 O 0.74606 0.24611 0.47994
 O805 O 0.76294 0.26273 0.48724
 O806 O 0.73755 0.23742 0.51261
 C807 C 0.76271 0.29074 0.48805
 C808 C 0.79089 0.26218 0.48751
 C809 C 0.76239 0.26245 0.45925
 C810 C 0.73768 0.21012 0.51282
 C811 C 0.73733 0.23721 0.53975
 C812 C 0.71038 0.23723 0.51267
 H813 H 0.75654 0.25615 0.52871
 H814 H 0.72149 0.25618 0.49352
 H815 H 0.76847 0.26827 0.48171
 H816 H 0.75644 0.22125 0.49382
 H817 H 0.77937 0.22327 0.51162
 H818 H 0.77816 0.22162 0.48871
 H819 H 0.71341 0.26943 0.50865
 H820 H 0.73016 0.28513 0.49380
 H821 H 0.77105 0.22906 0.53629
 H822 H 0.78690 0.27064 0.52094
 H823 H 0.72193 0.24020 0.47211
 H824 H 0.73105 0.25860 0.46343
 H825 H 0.75655 0.28482 0.52019
 H826 H 0.74159 0.26961 0.53657
 H827 H 0.75645 0.23030 0.46448
 H828 H 0.74095 0.21298 0.48076
 O829 O 0.76829 0.78543 -0.00233
 O830 O 0.76487 0.78080 0.02116
 O831 O 0.78517 0.75256 -0.01843
 O832 O 0.78152 0.72989 -0.01554
 O833 O 0.75245 0.76860 -0.03534
 O834 O 0.72841 0.76582 -0.03060
 O835 O 0.74752 0.71578 0.01826
 O836 O 0.77088 0.71930 0.01399
 O837 O 0.73172 0.74778 0.03432
 O838 O 0.73455 0.77230 0.02973
 O839 O 0.71555 0.73178 0.00241
 O840 O 0.71847 0.73543 -0.02054
 O841 O 0.73197 0.71570 0.00247
 O842 O 0.73546 0.72069 -0.02263
 O843 O 0.71561 0.74735 0.01815
 O844 O 0.71996 0.77228 0.01438
 O845 O 0.74704 0.73180 0.03409
 O846 O 0.77133 0.73704 0.03024
 O847 O 0.75248 0.78558 -0.01795
 O848 O 0.72855 0.78087 -0.01487
 O849 O 0.76790 0.75266 -0.03556
 O850 O 0.76427 0.72860 -0.03063
 O851 O 0.78517 0.76832 -0.00279
 O852 O 0.78055 0.76347 0.02114
 Zr853 Zr 0.76625 0.76631 0.00652
 O854 O 0.75420 0.75454 0.01928
 Zr855 Zr 0.76609 0.74355 -0.01652
 O856 O 0.75427 0.73077 -0.00448
 Zr857 Zr 0.74329 0.76653 -0.01634
 O858 O 0.73049 0.75452 -0.00456
 Zr859 Zr 0.75694 0.73443 0.01564
 O860 O 0.76998 0.74613 0.00368
 Zr861 Zr 0.73408 0.75725 0.01559
 O862 O 0.74607 0.77016 0.00383
 Zr863 Zr 0.73414 0.73439 -0.00721
 O864 O 0.74588 0.74635 -0.02028
 O865 O 0.76273 0.76300 -0.01297
 O866 O 0.73734 0.73766 0.01238
 C867 C 0.76244 0.79102 -0.01217
 C868 C 0.79068 0.76249 -0.01267
 C869 C 0.76222 0.76269 -0.04097
 C870 C 0.73755 0.71035 0.01256
 C871 C 0.73715 0.73756 0.03957
 C872 C 0.71022 0.73733 0.01252
 H873 H 0.75629 0.75645 0.02850
 H874 H 0.72128 0.75641 -0.00672
 H875 H 0.76825 0.76856 -0.01849
 H876 H 0.75627 0.72153 -0.00636
 H877 H 0.77916 0.72356 0.01144
 H878 H 0.77797 0.72189 -0.01147
 H879 H 0.71280 0.76918 0.00871
 H880 H 0.72999 0.78542 -0.00648
 H881 H 0.77084 0.72937 0.03610
 H882 H 0.78666 0.77095 0.02073
 H883 H 0.72169 0.74049 -0.02809
 H884 H 0.73083 0.75883 -0.03681
 H885 H 0.75626 0.78503 0.02005
 H886 H 0.74144 0.77014 0.03612
 H887 H 0.75633 0.73059 -0.03575
 H888 H 0.74092 0.71334 -0.01960
 O889 O 1.00240 0.21465 0.23206
 O890 O 0.97895 0.21923 0.23543
 O891 O 1.01836 0.24759 0.21488
 O892 O 1.01540 0.27023 0.21844
 O893 O 1.03543 0.23172 0.24762
 O894 O 1.03079 0.23467 0.27166
 O895 O 0.98149 0.28426 0.25256
 O896 O 0.98587 0.28078 0.22917
 O897 O 0.96589 0.25259 0.26862
 O898 O 0.97042 0.22790 0.26560
 O899 O 0.99767 0.26856 0.28447
 O900 O 1.02063 0.26507 0.28145
 O901 O 0.99738 0.28453 0.26801
 O902 O 1.02252 0.27974 0.26436
 O903 O 0.98207 0.25284 0.28461
 O904 O 0.98569 0.22800 0.28029
 O905 O 0.96574 0.26815 0.25286
 O906 O 0.96976 0.26288 0.22867
 O907 O 1.01816 0.21473 0.24775
 O908 O 1.01512 0.21953 0.27166
 O909 O 1.03557 0.24763 0.23213
 O910 O 1.03051 0.27168 0.23565
 O911 O 1.00281 0.23173 0.21501
 O912 O 0.97885 0.23647 0.21969
 Zr913 Zr 0.99353 0.23377 0.23396
 O914 O 0.98075 0.24555 0.24599
 Zr915 Zr 1.01647 0.25665 0.23393
 O916 O 1.00440 0.26943 0.24571
 Zr917 Zr 1.01647 0.23380 0.25685
 O918 O 1.00468 0.24581 0.26962
 Zr919 Zr 0.98429 0.26565 0.24310
 O920 O 0.99628 0.25394 0.23011
 Zr921 Zr 0.98453 0.24297 0.26611
 O922 O 0.99632 0.23006 0.25415
 Zr923 Zr 1.00721 0.26593 0.26585
 O924 O 1.02031 0.25398 0.25414
 O925 O 1.01302 0.23720 0.23739
 O926 O 0.98763 0.26255 0.26271
 C927 C 1.01232 0.20917 0.23788
 C928 C 1.01263 0.23760 0.20944
 C929 C 1.04101 0.23762 0.23782
 C930 C 0.98719 0.28976 0.26249
 C931 C 0.96045 0.26259 0.26297
 C932 C 0.98765 0.26295 0.28990
 H933 H 0.97154 0.24357 0.24394
 H934 H 1.00688 0.24399 0.27884
 H935 H 1.01854 0.23163 0.23188
 H936 H 1.00623 0.27867 0.24366
 H937 H 0.98844 0.27654 0.22088
 H938 H 1.01132 0.27823 0.22196
 H939 H 0.99169 0.23095 0.28724
 H940 H 1.00673 0.21495 0.27030
 H941 H 0.96387 0.27054 0.22906
 H942 H 0.97931 0.22897 0.21359
 H943 H 1.02820 0.26006 0.27821
 H944 H 1.03696 0.24166 0.26916
 H945 H 0.98000 0.21515 0.24412
 H946 H 0.96366 0.23038 0.25917
 H947 H 1.03567 0.26975 0.24357
 H948 H 1.01936 0.28710 0.25899
 O949 O 0.78512 0.99800 0.76814
 O950 O 0.78053 1.02147 0.76474
 O951 O 0.75226 0.98184 0.78496
 O952 O 0.72955 0.98496 0.78137
 O953 O 0.76817 0.96496 0.75230
 O954 O 0.76547 0.96974 0.72826
 O955 O 0.71553 1.01874 0.74728
 O956 O 0.71897 1.01442 0.77065
 O957 O 0.74748 1.03464 0.73149
 O958 O 0.77204 1.03005 0.73443
 O959 O 0.73149 1.00281 0.71538
 O960 O 0.73509 0.97985 0.71830
 O961 O 0.71539 1.00288 0.73179
 O962 O 0.72034 0.97778 0.73529
 O963 O 0.74711 1.01849 0.71542
 O964 O 0.77202 1.01469 0.71983
 O965 O 0.73160 1.03455 0.74693
 O966 O 0.73676 1.03062 0.77119
 O967 O 0.78518 0.98229 0.75241
 O968 O 0.78055 0.98545 0.72846
 O969 O 0.75228 0.96483 0.76780
 O970 O 0.72822 0.96978 0.76411
 O971 O 0.76787 0.99764 0.78512
 O972 O 0.76319 1.02156 0.78036
 Zr973 Zr 0.76600 1.00687 0.76611
 O974 O 0.75426 1.01964 0.75404
 Zr975 Zr 0.74319 0.98387 0.76594
 O976 O 0.73044 0.99593 0.75410
 Zr977 Zr 0.76618 0.98398 0.74316
 O978 O 0.75420 0.99578 0.73034
 Zr979 Zr 0.73414 1.01605 0.75677
 O980 O 0.74581 1.00407 0.76982
 Zr981 Zr 0.75697 1.01593 0.73392
 O982 O 0.76984 1.00415 0.74594
 Zr983 Zr 0.73406 0.99319 0.73398
 O984 O 0.74599 0.98009 0.74573
 O985 O 0.76265 0.98739 0.76260
 O986 O 0.73737 1.01276 0.73717
 C987 C 0.79066 0.98811 0.76234
 C988 C 0.76211 0.98767 0.79055
 C989 C 0.76227 0.95938 0.76210
 C990 C 0.71008 1.01302 0.73733
 C991 C 0.73733 1.03997 0.73697
 C992 C 0.73707 1.01289 0.71004
 H993 H 0.75619 1.02886 0.75612
 H994 H 0.75609 0.99361 0.72113
 H995 H 0.76819 0.98186 0.76813
 H996 H 0.72120 0.99407 0.75610
 H997 H 0.72319 1.01184 0.77895
 H998 H 0.72152 0.98892 0.77779
 H999 H 0.76894 1.00899 0.71268
 H1000 H 0.78514 0.99381 0.72994
 H1001 H 0.72910 1.03649 0.77071
 H1002 H 0.77065 1.02113 0.78650
 H1003 H 0.74013 0.97229 0.72153
 H1004 H 0.75846 0.96355 0.73066
 H1005 H 0.78469 1.02040 0.75609
 H1006 H 0.76978 1.03654 0.74120
 H1007 H 0.73023 0.96464 0.75619
 H1008 H 0.71300 0.98082 0.74077
 O1009 O 0.74793 0.53527 0.23185
 O1010 O 0.77145 0.53071 0.23533
 O1011 O 0.73210 0.50237 0.21465
 O1012 O 0.73522 0.47969 0.21821
 O1013 O 0.71481 0.51788 0.24772
 O1014 O 0.71956 0.51497 0.27140
 O1015 O 0.76866 0.46553 0.25230
 O1016 O 0.76451 0.46922 0.22895
 O1017 O 0.78457 0.49744 0.26840
 O1018 O 0.78002 0.52210 0.26529
 O1019 O 0.75281 0.48152 0.28432
 O1020 O 0.72810 0.48461 0.27983
 O1021 O 0.75308 0.46556 0.26807
 O1022 O 0.72818 0.46990 0.26469
 O1023 O 0.76827 0.49737 0.28454
 O1024 O 0.76488 0.52215 0.27996
 O1025 O 0.78447 0.48157 0.25296
 O1026 O 0.78078 0.48696 0.22871
 O1027 O 0.73213 0.53516 0.24749
 O1028 O 0.73516 0.53046 0.27142
 O1029 O 0.71494 0.50233 0.23186
 O1030 O 0.71988 0.47831 0.23534
 O1031 O 0.74762 0.51825 0.21483
 O1032 O 0.77156 0.51353 0.21951
 Zr1033 Zr 0.75687 0.51618 0.23378
 O1034 O 0.76964 0.50437 0.24580
 Zr1035 Zr 0.73400 0.49328 0.23368
 O1036 O 0.74596 0.48050 0.24557
 Zr1037 Zr 0.73392 0.51612 0.25666
 O1038 O 0.74576 0.50421 0.26950
 Zr1039 Zr 0.76608 0.48425 0.24299
 O1040 O 0.75418 0.49600 0.22993
 Zr1041 Zr 0.76590 0.50703 0.26592
 O1042 O 0.75407 0.51991 0.25397
 Zr1043 Zr 0.74316 0.48407 0.26571
 O1044 O 0.73019 0.49596 0.25386
 O1045 O 0.73738 0.51273 0.23719
 O1046 O 0.76275 0.48744 0.26259
 C1047 C 0.73797 0.54073 0.23763
 C1048 C 0.73781 0.51238 0.20923
 C1049 C 0.70936 0.51214 0.23775
 C1050 C 0.76310 0.46018 0.26239
 C1051 C 0.78987 0.48727 0.26293
 C1052 C 0.76275 0.48722 0.28980
 H1053 H 0.77885 0.50633 0.24374
 H1054 H 0.74367 0.50621 0.27869
 H1055 H 0.73181 0.51827 0.23170
 H1056 H 0.74414 0.47127 0.24352
 H1057 H 0.76203 0.47352 0.22066
 H1058 H 0.73909 0.47162 0.22181
 H1059 H 0.75878 0.51936 0.28690
 H1060 H 0.74358 0.53499 0.27011
 H1061 H 0.78661 0.47927 0.22916
 H1062 H 0.77112 0.52105 0.21345
 H1063 H 0.73067 0.49090 0.28668
 H1064 H 0.71547 0.50627 0.27052
 H1065 H 0.77024 0.53494 0.24392
 H1066 H 0.78675 0.51959 0.25886
 H1067 H 0.71501 0.48001 0.24350
 H1068 H 0.73108 0.46293 0.25868
 O1069 O 0.53524 0.23152 0.74774
 O1070 O 0.53077 0.23508 0.77129
 O1071 O 0.50246 0.21466 0.73179
 O1072 O 0.47977 0.21820 0.73496
 O1073 O 0.51808 0.24766 0.71472
 O1074 O 0.51528 0.27131 0.71948
 O1075 O 0.46565 0.25231 0.76851
 O1076 O 0.46920 0.22898 0.76433
 O1077 O 0.49743 0.26843 0.78433
 O1078 O 0.52215 0.26507 0.77996
 O1079 O 0.48171 0.28426 0.75265
 O1080 O 0.48478 0.27982 0.72798
 O1081 O 0.46572 0.26805 0.75290
 O1082 O 0.47012 0.26463 0.72798
 O1083 O 0.49752 0.28445 0.76814
 O1084 O 0.52232 0.27980 0.76480
 O1085 O 0.48180 0.25274 0.78446
 O1086 O 0.48699 0.22853 0.78053
 O1087 O 0.53539 0.24741 0.73218
 O1088 O 0.53065 0.27132 0.73515
 O1089 O 0.50245 0.23188 0.71477
 O1090 O 0.47841 0.23542 0.71971
 O1091 O 0.51817 0.21462 0.74749
 O1092 O 0.51348 0.21937 0.77143
 Zr1093 Zr 0.51621 0.23361 0.75673
 O1094 O 0.50445 0.24568 0.76950
 Zr1095 Zr 0.49338 0.23366 0.73381
 O1096 O 0.48062 0.24554 0.74581
 Zr1097 Zr 0.51631 0.25656 0.73384
 O1098 O 0.50439 0.26942 0.74564
 Zr1099 Zr 0.48433 0.24292 0.76593
 O1100 O 0.49602 0.22984 0.75400
 Zr1101 Zr 0.50716 0.26581 0.76578
 O1102 O 0.52002 0.25380 0.75399
 Zr1103 Zr 0.48425 0.26566 0.74301
 O1104 O 0.49615 0.25384 0.73005
 O1105 O 0.51284 0.23710 0.73724
 O1106 O 0.48756 0.26251 0.76260
 C1107 C 0.54083 0.23741 0.73791
 C1108 C 0.51237 0.20913 0.73757
 C1109 C 0.51229 0.23774 0.70923
 C1110 C 0.46032 0.26240 0.76292
 C1111 C 0.48740 0.26284 0.78975
 C1112 C 0.48738 0.28972 0.76261
 H1113 H 0.50640 0.24361 0.77871
 H1114 H 0.50641 0.27861 0.74357
 H1115 H 0.51837 0.23160 0.73167
 H1116 H 0.47138 0.24351 0.74397
 H1117 H 0.47345 0.22069 0.76178
 H1118 H 0.47171 0.22180 0.73886
 H1119 H 0.51954 0.28678 0.75874
 H1120 H 0.53515 0.27000 0.74359
 H1121 H 0.47931 0.22897 0.78639
 H1122 H 0.52097 0.21326 0.77099
 H1123 H 0.49118 0.28658 0.73050
 H1124 H 0.50655 0.27055 0.71545
 H1125 H 0.53502 0.24366 0.77009
 H1126 H 0.51946 0.25883 0.78681
 H1127 H 0.48020 0.24353 0.71479
 H1128 H 0.46308 0.25872 0.73091
 O1129 O 0.21475 0.73244 0.50206
 O1130 O 0.21927 0.73614 0.47857
 O1131 O 0.24774 0.71516 0.51773
 O1132 O 0.27039 0.71873 0.51472
 O1133 O 0.23213 0.74794 0.53520
 O1134 O 0.23502 0.77197 0.53053
 O1135 O 0.28450 0.75276 0.48120
 O1136 O 0.28078 0.72942 0.48536
 O1137 O 0.25276 0.76909 0.46556
 O1138 O 0.22773 0.76551 0.47043
 O1139 O 0.26885 0.78472 0.49707
 O1140 O 0.26512 0.78185 0.52014
 O1141 O 0.28464 0.76837 0.49694
 O1142 O 0.27993 0.76472 0.52207
 O1143 O 0.25291 0.78509 0.48170
 O1144 O 0.22988 0.78228 0.48577
 O1145 O 0.26827 0.75328 0.46531
 O1146 O 0.26292 0.72914 0.46922
 O1147 O 0.21500 0.74786 0.51807
 O1148 O 0.21979 0.77210 0.51531
 O1149 O 0.24778 0.73221 0.53502
 O1150 O 0.27182 0.73585 0.53003
 O1151 O 0.23179 0.71544 0.50227
 O1152 O 0.23635 0.72027 0.47833
 Zr1153 Zr 0.23382 0.73447 0.49312
 O1154 O 0.24566 0.74646 0.48036
 Zr1155 Zr 0.25681 0.73421 0.51596
 O1156 O 0.26957 0.74605 0.50393
 Zr1157 Zr 0.23398 0.75717 0.51621
 O1158 O 0.24595 0.76994 0.50434
 Zr1159 Zr 0.26577 0.74348 0.48383
 O1160 O 0.25399 0.73050 0.49577
 Zr1161 Zr 0.24313 0.76657 0.48419
 O1162 O 0.23011 0.75469 0.49603
 Zr1163 Zr 0.26608 0.76618 0.50679
 O1164 O 0.25419 0.75441 0.51990
 O1165 O 0.23735 0.73774 0.51262
 O1166 O 0.26269 0.76308 0.48723
 C1167 C 0.20936 0.73811 0.51211
 C1168 C 0.23771 0.70977 0.51202
 C1169 C 0.23793 0.73800 0.54063
 C1170 C 0.28995 0.76275 0.48685
 C1171 C 0.26272 0.76342 0.46007
 C1172 C 0.26315 0.79025 0.48715
 H1173 H 0.24364 0.74446 0.47114
 H1174 H 0.24404 0.77917 0.50643
 H1175 H 0.23183 0.73218 0.51813
 H1176 H 0.27882 0.74398 0.50575
 H1177 H 0.27648 0.72116 0.48790
 H1178 H 0.27845 0.72232 0.51081
 H1179 H 0.22204 0.77877 0.49015
 H1180 H 0.21343 0.76950 0.50852
 H1181 H 0.27059 0.72950 0.46335
 H1182 H 0.22881 0.71422 0.47879
 H1183 H 0.26039 0.77853 0.52785
 H1184 H 0.24206 0.76946 0.53664
 H1185 H 0.21482 0.74458 0.48007
 H1186 H 0.23074 0.76009 0.46303
 H1187 H 0.26990 0.74377 0.53520
 H1188 H 0.28724 0.75926 0.51892
 O1189 O 0.26869 0.28500 0.99789
 O1190 O 0.26522 0.28038 1.02144
 O1191 O 0.28537 0.25220 0.98172
 O1192 O 0.28168 0.22952 0.98460
 O1193 O 0.25269 0.26837 0.96500
 O1194 O 0.22863 0.26557 0.96974
 O1195 O 0.24787 0.21530 1.01836
 O1196 O 0.27115 0.21892 1.01413
 O1197 O 0.23203 0.24735 1.03460
 O1198 O 0.23503 0.27193 1.03009
 O1199 O 0.21582 0.23148 1.00278
 O1200 O 0.21866 0.23523 0.97977
 O1201 O 0.23203 0.21550 1.00286
 O1202 O 0.23562 0.22037 0.97769
 O1203 O 0.21573 0.24727 1.01831
 O1204 O 0.22035 0.27206 1.01496
 O1205 O 0.24731 0.23133 1.03429
 O1206 O 0.27160 0.23659 1.03044
 O1207 O 0.25271 0.28531 0.98243
 O1208 O 0.22881 0.28060 0.98550
 O1209 O 0.26802 0.25232 0.96464
 O1210 O 0.26439 0.22828 0.96956
 O1211 O 0.28546 0.26790 0.99743
 O1212 O 0.28087 0.26301 1.02137
 Zr1213 Zr 0.26655 0.26591 1.00678
 O1214 O 0.25451 0.25413 1.01954
 Zr1215 Zr 0.26628 0.24320 0.98369
 O1216 O 0.25446 0.23042 0.99572
 Zr1217 Zr 0.24353 0.26625 0.98398
 O1218 O 0.23073 0.25425 0.99577
 Zr1219 Zr 0.25720 0.23402 1.01584
 O1220 O 0.27023 0.24573 1.00388
 Zr1221 Zr 0.23438 0.25693 1.01592
 O1222 O 0.24637 0.26982 1.00415
 Zr1223 Zr 0.23434 0.23411 0.99308
 O1224 O 0.24606 0.24607 0.98000
 O1225 O 0.26297 0.26265 0.98729
 O1226 O 0.23760 0.23733 1.01266
 C1227 C 0.26277 0.29066 0.98814
 C1228 C 0.29092 0.26210 0.98750
 C1229 C 0.26239 0.26241 0.95931
 C1230 C 0.23774 0.21002 1.01280
 C1231 C 0.23745 0.23712 1.03981
 C1232 C 0.21041 0.23716 1.01276
 H1233 H 0.25663 0.25602 1.02875
 H1234 H 0.22152 0.25615 0.99363
 H1235 H 0.26849 0.26820 0.98177
 H1236 H 0.25643 0.22118 0.99381
 H1237 H 0.27943 0.22318 1.01158
 H1238 H 0.27814 0.22152 0.98867
 H1239 H 0.21342 0.26930 1.00885
 H1240 H 0.23022 0.28508 0.99393
 H1241 H 0.27111 0.22890 1.03628
 H1242 H 0.28699 0.27049 1.02096
 H1243 H 0.22193 0.24018 0.97217
 H1244 H 0.23105 0.25859 0.96352
 H1245 H 0.25666 0.28470 1.02028
 H1246 H 0.24178 0.26959 1.03657
 H1247 H 0.25640 0.23026 0.96451
 H1248 H 0.24088 0.21291 0.98082
 C1249 C 0.30412 0.37589 0.80354
 C1250 C 0.31720 0.37201 0.80113
 C1251 C 0.32291 0.36058 0.80687
 C1252 C 0.31593 0.35207 0.81539
 C1253 C 0.30278 0.35599 0.81771
 C1254 C 0.29712 0.36748 0.81204
 C1255 C 0.29791 0.38841 0.79732
 N1256 N 0.28573 0.39274 0.80074
 N1257 N 0.28038 0.40353 0.79540
 C1258 C 0.28678 0.41081 0.78619
 N1259 N 0.29895 0.40647 0.78275
 N1260 N 0.30432 0.39571 0.78813
 C1261 C 0.28055 0.42333 0.77997
 C1262 C 0.28646 0.43022 0.76948
 C1263 C 0.28075 0.44168 0.76379
 C1264 C 0.26879 0.44710 0.76824
 C1265 C 0.26292 0.44025 0.77878
 C1266 C 0.26856 0.42872 0.78439
 H1267 H 0.32322 0.37794 0.79480
 H1268 H 0.33302 0.35859 0.80468
 H1269 H 0.29657 0.35009 0.82384
 H1270 H 0.28706 0.36973 0.81432
 H1271 H 0.29562 0.42675 0.76557
 H1272 H 0.28590 0.44640 0.75588
 H1273 H 0.25385 0.44384 0.78282
 H1274 H 0.26348 0.42407 0.79239
 C1275 C 0.30417 -0.12396 0.30402
 C1276 C 0.29998 -0.12917 0.31613
 C1277 C 0.30566 -0.14062 0.32187
 C1278 C 0.31603 -0.14788 0.31594
 C1279 C 0.32014 -0.14249 0.30371
 C1280 C 0.31445 -0.13102 0.29803
 C1281 C 0.29795 -0.11144 0.29778
 N1282 N 0.30238 -0.10629 0.28627
 N1283 N 0.29703 -0.09551 0.28091
 C1284 C 0.28681 -0.08906 0.28662
 N1285 N 0.28237 -0.09421 0.29814
 N1286 N 0.28774 -0.10498 0.30351
 C1287 C 0.28058 -0.07655 0.28039
 C1288 C 0.26972 -0.07000 0.28601
 C1289 C 0.26403 -0.05853 0.28034
 C1290 C 0.26879 -0.05280 0.26864
 C1291 C 0.27968 -0.05932 0.26304
 C1292 C 0.28535 -0.07081 0.26869
 H1293 H 0.29220 -0.12431 0.32137
 H1294 H 0.30180 -0.14345 0.33123
 H1295 H 0.32770 -0.14713 0.29807
 H1296 H 0.31817 -0.12770 0.28872
 H1297 H 0.26554 -0.07373 0.29496
 H1298 H 0.25586 -0.05405 0.28529
 H1299 H 0.28397 -0.05547 0.25419
 H1300 H 0.29363 -0.07519 0.26384
 C1301 C 0.80342 0.87532 0.80339
 C1302 C 0.81391 0.86843 0.79757
 C1303 C 0.81965 0.85701 0.80330
 C1304 C 0.81539 0.85147 0.81542
 C1305 C 0.80482 0.85859 0.82119
 C1306 C 0.79909 0.86999 0.81539
 C1307 C 0.79716 0.88780 0.79709
 N1308 N 0.78673 0.89407 0.80263
 N1309 N 0.78132 0.90480 0.79722
 C1310 C 0.78594 0.91010 0.78584
 N1311 N 0.79638 0.90384 0.78031
 N1312 N 0.80177 0.89310 0.78572
 C1313 C 0.77967 0.92258 0.77956
 C1314 C 0.78466 0.92850 0.76805
 C1315 C 0.77901 0.94000 0.76238
 C1316 C 0.76791 0.94634 0.76777
 C1317 C 0.76290 0.94040 0.77927
 C1318 C 0.76858 0.92893 0.78496
 H1319 H 0.81778 0.87186 0.78836
 H1320 H 0.82743 0.85258 0.79780
 H1321 H 0.80081 0.85571 0.83046
 H1322 H 0.79115 0.87472 0.82050
 H1323 H 0.79313 0.92428 0.76337
 H1324 H 0.78351 0.94402 0.75372
 H1325 H 0.75457 0.94475 0.78407
 H1326 H 0.76422 0.92505 0.79375
 C1327 C 0.44623 0.87461 0.30368
 C1328 C 0.45216 0.88152 0.31410
 C1329 C 0.44643 0.89291 0.31993
 C1330 C 0.43423 0.89837 0.31583
 C1331 C 0.42837 0.89126 0.30531
 C1332 C 0.43415 0.87989 0.29950
 C1333 C 0.45251 0.86218 0.29732
 N1334 N 0.44685 0.85586 0.28698
 N1335 N 0.45226 0.84516 0.28150
 C1336 C 0.46375 0.83995 0.28593
 N1337 N 0.46940 0.84626 0.29627
 N1338 N 0.46400 0.85696 0.30174
 C1339 C 0.47002 0.82751 0.27957
 C1340 C 0.48169 0.82173 0.28435
 C1341 C 0.48736 0.81027 0.27862
 C1342 C 0.48181 0.80383 0.26766
 C1343 C 0.47016 0.80963 0.26286
 C1344 C 0.46447 0.82107 0.26861
 H1345 H 0.46144 0.87815 0.31783
 H1346 H 0.45202 0.89743 0.32760
 H1347 H 0.41904 0.89414 0.30143
 H1348 H 0.42896 0.87514 0.29162
 H1349 H 0.48650 0.82602 0.29271
 H1350 H 0.49615 0.80635 0.28296
 H1351 H 0.46523 0.80520 0.25464
 H1352 H 0.45555 0.82485 0.26442
 C1353 C -0.05388 0.87445 0.80409
 C1354 C -0.04686 0.88283 0.81260
 C1355 C -0.05250 0.89432 0.81830
 C1356 C -0.06564 0.89827 0.81600
 C1357 C -0.07265 0.88979 0.80748
 C1358 C -0.06696 0.87835 0.80171
 C1359 C -0.04770 0.86193 0.79782
 N1360 N -0.05414 0.85465 0.78864
 N1361 N -0.04880 0.84389 0.78322
 C1362 C -0.03662 0.83953 0.78661
 N1363 N -0.03019 0.84679 0.79581
 N1364 N -0.03551 0.85758 0.80119
 C1365 C -0.03043 0.82701 0.78034
 C1366 C -0.01842 0.82159 0.78468
 C1367 C -0.01282 0.81007 0.77901
 C1368 C -0.01876 0.80324 0.76850
 C1369 C -0.03074 0.80869 0.76413
 C1370 C -0.03640 0.82014 0.76987
 H1371 H -0.03680 0.88057 0.81486
 H1372 H -0.04628 0.90022 0.82443
 H1373 H -0.08276 0.89180 0.80529
 H1374 H -0.07299 0.87245 0.79536
 H1375 H -0.01329 0.82623 0.79265
 H1376 H -0.00373 0.80646 0.78300
 H1377 H -0.03593 0.80398 0.75623
 H1378 H -0.04559 0.82363 0.76602
 C1379 C -0.05374 -0.12378 -0.05411
 C1380 C -0.04675 -0.13216 -0.06266
 C1381 C -0.05241 -0.14364 -0.06835
 C1382 C -0.06555 -0.14757 -0.06602
 C1383 C -0.07253 -0.13910 -0.05746
 C1384 C -0.06682 -0.12768 -0.05170
 C1385 C -0.04752 -0.11128 -0.04785
 N1386 N -0.05391 -0.10404 -0.03860
 N1387 N -0.04854 -0.09329 -0.03319
 C1388 C -0.03638 -0.08891 -0.03665
 N1389 N -0.03001 -0.09614 -0.04593
 N1390 N -0.03536 -0.10691 -0.05129
 C1391 C -0.03016 -0.07641 -0.03039
 C1392 C -0.01821 -0.07095 -0.03484
 C1393 C -0.01257 -0.05944 -0.02919
 C1394 C -0.01841 -0.05267 -0.01858
 C1395 C -0.03033 -0.05817 -0.01409
 C1396 C -0.03603 -0.06960 -0.01983
 H1397 H -0.03669 -0.12990 -0.06494
 H1398 H -0.04621 -0.14953 -0.07450
 H1399 H -0.08263 -0.14111 -0.05525
 H1400 H -0.07282 -0.12178 -0.04533
 H1401 H -0.01316 -0.07554 -0.04290
 H1402 H -0.00354 -0.05579 -0.03326
 H1403 H -0.03544 -0.05351 -0.00612
 H1404 H -0.04516 -0.07313 -0.01589
 C1405 C -0.05390 0.37587 0.44587
 C1406 C -0.06594 0.37054 0.45010
 C1407 C -0.07163 0.35908 0.44440
 C1408 C -0.06573 0.35192 0.43393
 C1409 C -0.05357 0.35744 0.42978
 C1410 C -0.04793 0.36892 0.43550
 C1411 C -0.04770 0.38840 0.45212
 N1412 N -0.03624 0.39364 0.44765
 N1413 N -0.03091 0.40443 0.45303
 C1414 C -0.03662 0.41080 0.46331
 N1415 N -0.04807 0.40555 0.46778
 N1416 N -0.05341 0.39477 0.46239
 C1417 C -0.03042 0.42331 0.46956
 C1418 C -0.03602 0.42981 0.48047
 C1419 C -0.03036 0.44128 0.48618
 C1420 C -0.01871 0.44708 0.48138
 C1421 C -0.01313 0.44061 0.47045
 C1422 C -0.01876 0.42911 0.46477
 H1423 H -0.07115 0.37531 0.45795
 H1424 H -0.08094 0.35616 0.44830
 H1425 H -0.04795 0.35289 0.42215
 H1426 H -0.03867 0.37232 0.43174
 H1427 H -0.04493 0.42602 0.48467
 H1428 H -0.03530 0.44572 0.49439
 H1429 H -0.00431 0.44450 0.46614
 H1430 H -0.01392 0.42478 0.45645
 C1431 C 0.44627 -0.12397 0.44630
 C1432 C 0.45329 -0.13241 0.43783
 C1433 C 0.44763 -0.14389 0.43216
 C1434 C 0.43446 -0.14778 0.43444
 C1435 C 0.42746 -0.13925 0.44291
 C1436 C 0.43317 -0.12782 0.44865
 C1437 C 0.45249 -0.11145 0.45251
 N1438 N 0.44605 -0.10412 0.46165
 N1439 N 0.45141 -0.09335 0.46703
 C1440 C 0.46361 -0.08905 0.46365
 N1441 N 0.47004 -0.09638 0.45449
 N1442 N 0.46470 -0.10717 0.44915
 C1443 C 0.46983 -0.07654 0.46987
 C1444 C 0.48187 -0.07119 0.46553
 C1445 C 0.48749 -0.05965 0.47115
 C1446 C 0.48155 -0.05277 0.48162
 C1447 C 0.46954 -0.05815 0.48600
 C1448 C 0.46386 -0.06961 0.48030
 H1449 H 0.46337 -0.13019 0.43560
 H1450 H 0.45385 -0.14982 0.42607
 H1451 H 0.41734 -0.14121 0.44507
 H1452 H 0.42715 -0.12186 0.45496
 H1453 H 0.48700 -0.07588 0.45759
 H1454 H 0.49660 -0.05608 0.46717
 H1455 H 0.46434 -0.05338 0.49385
 H1456 H 0.45465 -0.07305 0.48414
 C1457 C 0.44624 0.37576 -0.05399
 C1458 C 0.45194 0.36912 -0.06470
 C1459 C 0.44630 0.35765 -0.07045
 C1460 C 0.43442 0.35179 -0.06595
 C1461 C 0.42878 0.35865 -0.05514
 C1462 C 0.43447 0.37011 -0.04942
 C1463 C 0.45243 0.38829 -0.04773
 N1464 N 0.44690 0.39445 -0.03723
 N1465 N 0.45223 0.40523 -0.03184
 C1466 C 0.46350 0.41070 -0.03653
 N1467 N 0.46902 0.40454 -0.04704
 N1468 N 0.46369 0.39375 -0.05242
 C1469 C 0.46969 0.42322 -0.03027
 C1470 C 0.48123 0.42914 -0.03519
 C1471 C 0.48687 0.44064 -0.02951
 C1472 C 0.48140 0.44701 -0.01847
 C1473 C 0.46985 0.44110 -0.01355
 C1474 C 0.46420 0.42961 -0.01924
 H1475 H 0.46096 0.37280 -0.06876
 H1476 H 0.45166 0.35347 -0.07846
 H1477 H 0.41972 0.35546 -0.05088
 H1478 H 0.42947 0.37462 -0.04129
 H1479 H 0.48599 0.42490 -0.04361
 H1480 H 0.49559 0.44462 -0.03393
 H1481 H 0.46500 0.44545 -0.00524
 H1482 H 0.45538 0.42573 -0.01494
 C1483 C 0.80391 0.37463 0.44650
 C1484 C 0.81709 0.37832 0.44868
 C1485 C 0.82286 0.38968 0.44284
 C1486 C 0.81586 0.39829 0.43445
 C1487 C 0.80262 0.39454 0.43234
 C1488 C 0.79689 0.38313 0.43810
 C1489 C 0.79764 0.36219 0.45284
 N1490 N 0.78533 0.35803 0.44967
 N1491 N 0.77994 0.34731 0.45511
 C1492 C 0.78641 0.33993 0.46419
 N1493 N 0.79871 0.34410 0.46738
 N1494 N 0.80412 0.35480 0.46191
 C1495 C 0.78015 0.32749 0.47053
 C1496 C 0.78620 0.32048 0.48086
 C1497 C 0.78051 0.30906 0.48663
 C1498 C 0.76839 0.30377 0.48242
 C1499 C 0.76236 0.31075 0.47206
 C1500 C 0.76800 0.32225 0.46637
 H1501 H 0.82312 0.37231 0.45492
 H1502 H 0.83304 0.39151 0.44487
 H1503 H 0.79641 0.40054 0.42629
 H1504 H 0.78677 0.38102 0.43599
 H1505 H 0.79551 0.32383 0.48457
 H1506 H 0.78582 0.30421 0.49436
 H1507 H 0.75318 0.30725 0.46819
 H1508 H 0.76279 0.32699 0.45851
 C1509 C 0.80366 0.87510 -0.05333
 C1510 C 0.81472 0.88146 -0.04798
 C1511 C 0.82048 0.89287 -0.05371
 C1512 C 0.81566 0.89895 -0.06536
 C1513 C 0.80450 0.89237 -0.07065
 C1514 C 0.79877 0.88097 -0.06486
 C1515 C 0.79739 0.86263 -0.04705
 N1516 N 0.78659 0.85671 -0.05227
 N1517 N 0.78119 0.84598 -0.04686
 C1518 C 0.78615 0.84032 -0.03581
 N1519 N 0.79695 0.84624 -0.03059
 N1520 N 0.80235 0.85697 -0.03599
 C1521 C 0.77988 0.82784 -0.02954
 C1522 C 0.78503 0.82173 -0.01820
 C1523 C 0.77936 0.81024 -0.01254
 C1524 C 0.76809 0.80408 -0.01778
 C1525 C 0.76293 0.81020 -0.02911
 C1526 C 0.76861 0.82168 -0.03477
 H1527 H 0.81905 0.87759 -0.03916
 H1528 H 0.82882 0.89677 -0.04865
 H1529 H 0.79992 0.89577 -0.07947
 H1530 H 0.79035 0.87668 -0.06959
 H1531 H 0.79364 0.82581 -0.01365
 H1532 H 0.78399 0.80607 -0.00402
 H1533 H 0.75445 0.80600 -0.03380
 H1534 H 0.76411 0.82571 -0.04343
 C1535 C 0.80374 0.30369 0.37534
 C1536 C 0.81222 0.29672 0.36689
 C1537 C 0.81797 0.30245 0.35548
 C1538 C 0.81575 0.31565 0.35168
 C1539 C 0.80726 0.32261 0.36022
 C1540 C 0.80144 0.31684 0.37159
 C1541 C 0.79743 0.29741 0.38778
 N1542 N 0.78837 0.30388 0.39519
 N1543 N 0.78292 0.29846 0.40589
 C1544 C 0.78614 0.28616 0.41004
 N1545 N 0.79522 0.27970 0.40265
 N1546 N 0.80063 0.28510 0.39192
 C1547 C 0.77984 0.27989 0.42249
 C1548 C 0.78394 0.26768 0.42766
 C1549 C 0.77828 0.26204 0.43916
 C1550 C 0.76801 0.26813 0.44622
 C1551 C 0.76386 0.28030 0.44101
 C1552 C 0.76959 0.28599 0.42958
 H1553 H 0.81441 0.28662 0.36904
 H1554 H 0.82409 0.29627 0.34953
 H1555 H 0.80514 0.33276 0.35832
 H1556 H 0.79513 0.32284 0.37755
 H1557 H 0.79173 0.26244 0.42284
 H1558 H 0.78209 0.25281 0.44260
 H1559 H 0.75621 0.28565 0.44594
 H1560 H 0.76594 0.29533 0.42629
 C1561 C 0.80350 0.80392 -0.12497
 C1562 C 0.79946 0.81614 -0.13005
 C1563 C 0.80520 0.82193 -0.14145
 C1564 C 0.81549 0.81595 -0.14879
 C1565 C 0.81945 0.80362 -0.14352
 C1566 C 0.81370 0.79788 -0.13210
 C1567 C 0.79721 0.79764 -0.11251
 N1568 N 0.80152 0.78603 -0.10745
 N1569 N 0.79611 0.78063 -0.09672
 C1570 C 0.78594 0.78639 -0.09022
 N1571 N 0.78162 0.79799 -0.09529
 N1572 N 0.78705 0.80340 -0.10600
 C1573 C 0.77966 0.78012 -0.07776
 C1574 C 0.76883 0.78577 -0.07117
 C1575 C 0.76314 0.78009 -0.05970
 C1576 C 0.76785 0.76835 -0.05401
 C1577 C 0.77868 0.76270 -0.06059
 C1578 C 0.78435 0.76836 -0.07208
 H1579 H 0.79176 0.82143 -0.12512
 H1580 H 0.80148 0.83139 -0.14414
 H1581 H 0.82692 0.79792 -0.14825
 H1582 H 0.81730 0.78849 -0.12889
 H1583 H 0.76471 0.79476 -0.07486
 H1584 H 0.75503 0.78510 -0.05516
 H1585 H 0.78295 0.75384 -0.05676
 H1586 H 0.79259 0.76347 -0.07650
 C1587 C 0.30427 0.44591 0.87385
 C1588 C 0.30204 0.43277 0.87766
 C1589 C 0.30781 0.42709 0.88910
 C1590 C 0.31618 0.43416 0.89768
 C1591 C 0.31834 0.44735 0.89382
 C1592 C 0.31264 0.45298 0.88233
 C1593 C 0.29800 0.45209 0.86133
 N1594 N 0.30118 0.46438 0.85712
 N1595 N 0.29579 0.46969 0.84633
 C1596 C 0.28676 0.46316 0.83894
 N1597 N 0.28356 0.45088 0.84316
 N1598 N 0.28899 0.44555 0.85392
 C1599 C 0.28049 0.46935 0.82643
 C1600 C 0.27023 0.46324 0.81936
 C1601 C 0.26449 0.46891 0.80791
 C1602 C 0.26865 0.48106 0.80266
 C1603 C 0.27896 0.48714 0.80968
 C1604 C 0.28462 0.48152 0.82120
 H1605 H 0.29582 0.42670 0.87168
 H1606 H 0.30573 0.41694 0.89103
 H1607 H 0.32435 0.45361 0.89981
 H1608 H 0.31478 0.46309 0.88015
 H1609 H 0.26655 0.45392 0.82270
 H1610 H 0.25679 0.46358 0.80303
 H1611 H 0.28277 0.49635 0.80623
 H1612 H 0.29243 0.48677 0.82598
 C1613 C 0.30473 -0.05420 0.37382
 C1614 C 0.31677 -0.04990 0.37910
 C1615 C 0.32256 -0.05557 0.39054
 C1616 C 0.31677 -0.06608 0.39773
 C1617 C 0.30460 -0.07030 0.39226
 C1618 C 0.29887 -0.06461 0.38080
 C1619 C 0.29845 -0.04797 0.36131
 N1620 N 0.28698 -0.05249 0.35611
 N1621 N 0.28158 -0.04712 0.34535
 C1622 C 0.28720 -0.03680 0.33896
 N1623 N 0.29866 -0.03229 0.34417
 N1624 N 0.30407 -0.03766 0.35492
 C1625 C 0.28092 -0.03055 0.32647
 C1626 C 0.28646 -0.01962 0.31996
 C1627 C 0.28074 -0.01392 0.30851
 C1628 C 0.26907 -0.01872 0.30275
 C1629 C 0.26355 -0.02968 0.30923
 C1630 C 0.26925 -0.03537 0.32070
 H1631 H 0.32191 -0.04201 0.37432
 H1632 H 0.33183 -0.05154 0.39340
 H1633 H 0.29905 -0.07797 0.39682
 H1634 H 0.28963 -0.06844 0.37744
 H1635 H 0.29538 -0.01540 0.32371
 H1636 H 0.28564 -0.00569 0.30406
 H1637 H 0.25474 -0.03402 0.30537
 H1638 H 0.26446 -0.04370 0.32505
 C1639 C -0.05401 -0.05391 -0.12388
 C1640 C -0.04840 -0.06465 -0.13054
 C1641 C -0.05409 -0.07034 -0.14202
 C1642 C -0.06596 -0.06576 -0.14784
 C1643 C -0.07149 -0.05489 -0.14098
 C1644 C -0.06575 -0.04924 -0.12952
 C1645 C -0.04776 -0.04769 -0.11136
 N1646 N -0.05320 -0.03715 -0.10519
 N1647 N -0.04781 -0.03180 -0.09442
 C1648 C -0.03657 -0.03657 -0.08897
 N1649 N -0.03113 -0.04711 -0.09514
 N1650 N -0.03651 -0.05246 -0.10592
 C1651 C -0.03032 -0.03034 -0.07646
 C1652 C -0.01880 -0.03533 -0.07055
 C1653 C -0.01312 -0.02967 -0.05905
 C1654 C -0.01852 -0.01858 -0.05270
 C1655 C -0.03004 -0.01360 -0.05861
 C1656 C -0.03573 -0.01928 -0.07008
 H1657 H -0.03939 -0.06878 -0.12689
 H1658 H -0.04875 -0.07834 -0.14625
 H1659 H -0.08047 -0.05050 -0.14420
 H1660 H -0.07067 -0.04105 -0.12501
 H1661 H -0.01410 -0.04377 -0.07479
 H1662 H -0.00442 -0.03413 -0.05507
 H1663 H -0.03485 -0.00527 -0.05426
 H1664 H -0.04454 -0.01492 -0.07396
 C1665 C -0.05426 0.44551 0.37627
 C1666 C -0.06278 0.45248 0.36786
 C1667 C -0.06847 0.44679 0.35639
 C1668 C -0.06615 0.43364 0.35250
 C1669 C -0.05763 0.42667 0.36102
 C1670 C -0.05188 0.43241 0.37243
 C1671 C -0.04800 0.45176 0.38875
 N1672 N -0.03885 0.44533 0.39608
 N1673 N -0.03344 0.45072 0.40682
 C1674 C -0.03679 0.46294 0.41109
 N1675 N -0.04596 0.46936 0.40377
 N1676 N -0.05134 0.46398 0.39301
 C1677 C -0.03052 0.46919 0.42356
 C1678 C -0.03480 0.48128 0.42886
 C1679 C -0.02913 0.48695 0.44035
 C1680 C -0.01867 0.48100 0.44726
 C1681 C -0.01437 0.46893 0.44194
 C1682 C -0.02012 0.46321 0.43052
 H1683 H -0.06505 0.46256 0.37007
 H1684 H -0.07461 0.45297 0.35046
 H1685 H -0.05542 0.41656 0.35906
 H1686 H -0.04553 0.42641 0.37837
 H1687 H -0.04272 0.48642 0.42415
 H1688 H -0.03306 0.49609 0.44386
 H1689 H -0.00655 0.46371 0.44674
 H1690 H -0.01632 0.45396 0.42713
 C1691 C 0.44615 -0.05418 0.37614
 C1692 C 0.43298 -0.05200 0.37243
 C1693 C 0.42726 -0.05772 0.36099
 C1694 C 0.43431 -0.06601 0.35231
 C1695 C 0.44754 -0.06812 0.35607
 C1696 C 0.45322 -0.06247 0.36757
 C1697 C 0.45237 -0.04795 0.38866
 N1698 N 0.46469 -0.05111 0.39281
 N1699 N 0.47004 -0.04576 0.40360
 C1700 C 0.46351 -0.03678 0.41105
 N1701 N 0.45120 -0.03360 0.40689
 N1702 N 0.44584 -0.03900 0.39613
 C1703 C 0.46972 -0.03053 0.42357
 C1704 C 0.46360 -0.02030 0.43066
 C1705 C 0.46927 -0.01457 0.44211
 C1706 C 0.48144 -0.01871 0.44734
 C1707 C 0.48753 -0.02899 0.44030
 C1708 C 0.48191 -0.03465 0.42877
 H1709 H 0.42691 -0.04584 0.37848
 H1710 H 0.41709 -0.05569 0.35913
 H1711 H 0.45379 -0.07406 0.35001
 H1712 H 0.46335 -0.06457 0.36967
 H1713 H 0.45427 -0.01663 0.42734
 H1714 H 0.46394 -0.00688 0.44699
 H1715 H 0.49676 -0.03279 0.44374
 H1716 H 0.48716 -0.04244 0.42396
 C1717 C 0.44579 0.44547 -0.12372
 C1718 C 0.43729 0.45246 -0.13213
 C1719 C 0.43160 0.44677 -0.14360
 C1720 C 0.43390 0.43361 -0.14749
 C1721 C 0.44240 0.42664 -0.13896
 C1722 C 0.44815 0.43237 -0.12755
 C1723 C 0.45205 0.45171 -0.11123
 N1724 N 0.46119 0.44527 -0.10389
 N1725 N 0.46661 0.45066 -0.09316
 C1726 C 0.46328 0.46288 -0.08890
 N1727 N 0.45412 0.46931 -0.09622
 N1728 N 0.44874 0.46395 -0.10698
 C1729 C 0.46956 0.46913 -0.07642
 C1730 C 0.46529 0.48123 -0.07113
 C1731 C 0.47096 0.48689 -0.05965
 C1732 C 0.48140 0.48093 -0.05272
 C1733 C 0.48569 0.46885 -0.05803
 C1734 C 0.47994 0.46313 -0.06945
 H1735 H 0.43504 0.46253 -0.12993
 H1736 H 0.42547 0.45296 -0.14954
 H1737 H 0.44459 0.41651 -0.14091
 H1738 H 0.45448 0.42636 -0.12160
 H1739 H 0.45738 0.48638 -0.07585
 H1740 H 0.46705 0.49605 -0.05614
 H1741 H 0.49350 0.46362 -0.05322
 H1742 H 0.48372 0.45388 -0.07283
 C1743 C 0.44656 0.80396 0.37427
 C1744 C 0.43808 0.79697 0.38271
 C1745 C 0.43230 0.80270 0.39411
 C1746 C 0.43450 0.81590 0.39790
 C1747 C 0.44298 0.82288 0.38936
 C1748 C 0.44882 0.81711 0.37801
 C1749 C 0.45293 0.79768 0.36187
 N1750 N 0.46201 0.80416 0.35449
 N1751 N 0.46751 0.79874 0.34382
 C1752 C 0.46433 0.78644 0.33966
 N1753 N 0.45523 0.77997 0.34701
 N1754 N 0.44976 0.78537 0.35772
 C1755 C 0.47069 0.78018 0.32725
 C1756 C 0.46661 0.76797 0.32207
 C1757 C 0.47231 0.76232 0.31060
 C1758 C 0.48261 0.76840 0.30358
 C1759 C 0.48674 0.78058 0.30879
 C1760 C 0.48097 0.78628 0.32020
 H1761 H 0.43591 0.78686 0.38056
 H1762 H 0.42619 0.79652 0.40007
 H1763 H 0.44509 0.83303 0.39125
 H1764 H 0.45513 0.82311 0.37205
 H1765 H 0.45879 0.76273 0.32686
 H1766 H 0.46850 0.75310 0.30715
 H1767 H 0.49441 0.78592 0.30389
 H1768 H 0.48461 0.79562 0.32350
 C1769 C -0.05402 0.80465 0.87384
 C1770 C -0.04837 0.81536 0.88052
 C1771 C -0.05404 0.82105 0.89199
 C1772 C -0.06594 0.81650 0.89779
 C1773 C -0.07150 0.80567 0.89092
 C1774 C -0.06577 0.80001 0.87945
 C1775 C -0.04778 0.79843 0.86132
 N1776 N -0.05325 0.78790 0.85515
 N1777 N -0.04788 0.78254 0.84438
 C1778 C -0.03663 0.78729 0.83893
 N1779 N -0.03117 0.79783 0.84510
 N1780 N -0.03653 0.80318 0.85587
 C1781 C -0.03040 0.78106 0.82642
 C1782 C -0.01890 0.78603 0.82048
 C1783 C -0.01324 0.78036 0.80899
 C1784 C -0.01866 0.76927 0.80267
 C1785 C -0.03018 0.76430 0.80860
 C1786 C -0.03584 0.76999 0.82007
 H1787 H -0.03934 0.81945 0.87688
 H1788 H -0.04868 0.82902 0.89625
 H1789 H -0.08051 0.80131 0.89411
 H1790 H -0.07072 0.79185 0.87492
 H1791 H -0.01419 0.79449 0.82471
 H1792 H -0.00455 0.78482 0.80498
 H1793 H -0.03499 0.75596 0.80427
 H1794 H -0.04463 0.76564 0.82397
 C1795 C 0.37566 0.80399 0.30369
 C1796 C 0.36712 0.81233 0.29665
 C1797 C 0.35572 0.81811 0.30239
 C1798 C 0.35204 0.81606 0.31565
 C1799 C 0.36068 0.80771 0.32267
 C1800 C 0.37202 0.80187 0.31689
 C1801 C 0.38808 0.79763 0.29740
 N1802 N 0.39553 0.78865 0.30392
 N1803 N 0.40620 0.78315 0.29849
 C1804 C 0.41029 0.78624 0.28614
 N1805 N 0.40285 0.79525 0.27963
 N1806 N 0.39215 0.80071 0.28503
 C1807 C 0.42271 0.77989 0.27986
 C1808 C 0.42783 0.78391 0.26761
 C1809 C 0.43931 0.77820 0.26196
 C1810 C 0.44638 0.76796 0.26808
 C1811 C 0.44121 0.76389 0.28030
 C1812 C 0.42980 0.76967 0.28600
 H1813 H 0.36918 0.81438 0.28650
 H1814 H 0.34967 0.82409 0.29617
 H1815 H 0.35887 0.80572 0.33286
 H1816 H 0.37806 0.79567 0.32293
 H1817 H 0.42301 0.79168 0.26234
 H1818 H 0.44272 0.78196 0.25270
 H1819 H 0.44615 0.75626 0.28567
 H1820 H 0.42654 0.76607 0.29537
 C1821 C -0.12433 0.80396 0.80383
 C1822 C -0.12806 0.81712 0.80159
 C1823 C -0.13952 0.82284 0.80727
 C1824 C -0.14821 0.81581 0.81555
 C1825 C -0.14443 0.80259 0.81772
 C1826 C -0.13291 0.79691 0.81212
 C1827 C -0.11179 0.79774 0.79766
 N1828 N -0.10753 0.78551 0.80101
 N1829 N -0.09672 0.78016 0.79571
 C1830 C -0.08935 0.78660 0.78659
 N1831 N -0.09362 0.79881 0.78322
 N1832 N -0.10440 0.80418 0.78856
 C1833 C -0.07682 0.78038 0.78040
 C1834 C -0.06993 0.78629 0.76991
 C1835 C -0.05846 0.78061 0.76423
 C1836 C -0.05299 0.76867 0.76869
 C1837 C -0.05984 0.76279 0.77922
 C1838 C -0.07139 0.76840 0.78482
 H1839 H -0.12199 0.82318 0.79543
 H1840 H -0.14137 0.83301 0.80521
 H1841 H -0.15050 0.79635 0.82367
 H1842 H -0.13079 0.78680 0.81426
 H1843 H -0.07342 0.79545 0.76600
 H1844 H -0.05374 0.78577 0.75631
 H1845 H -0.05622 0.75373 0.78327
 H1846 H -0.07604 0.76331 0.79282
 C1847 C 0.87476 0.30365 0.44627
 C1848 C 0.88331 0.29669 0.43787
 C1849 C 0.89472 0.30247 0.43216
 C1850 C 0.89842 0.31571 0.43434
 C1851 C 0.88977 0.32266 0.44273
 C1852 C 0.87841 0.31683 0.44851
 C1853 C 0.86232 0.29732 0.45254
 N1854 N 0.85492 0.30373 0.46164
 N1855 N 0.84423 0.29827 0.46707
 C1856 C 0.84007 0.28600 0.46377
 N1857 N 0.84745 0.27960 0.45464
 N1858 N 0.85818 0.28504 0.44926
 C1859 C 0.82762 0.27969 0.47005
 C1860 C 0.82234 0.26759 0.46577
 C1861 C 0.81084 0.26193 0.47142
 C1862 C 0.80391 0.26787 0.48186
 C1863 C 0.80924 0.27992 0.48619
 C1864 C 0.82067 0.28565 0.48046
 H1865 H 0.88123 0.28657 0.43571
 H1866 H 0.90075 0.29630 0.42612
 H1867 H 0.89157 0.33283 0.44480
 H1868 H 0.87237 0.32282 0.45475
 H1869 H 0.82706 0.26246 0.45784
 H1870 H 0.80730 0.25280 0.46746
 H1871 H 0.80443 0.28516 0.49400
 H1872 H 0.82405 0.29490 0.48427
 C1873 C 0.87457 0.80387 -0.05395
 C1874 C 0.88307 0.79689 -0.06239
 C1875 C 0.89449 0.80264 -0.06811
 C1876 C 0.89824 0.81586 -0.06592
 C1877 C 0.88965 0.82282 -0.05747
 C1878 C 0.87829 0.81703 -0.05168
 C1879 C 0.86213 0.79756 -0.04767
 N1880 N 0.85474 0.80399 -0.03857
 N1881 N 0.84404 0.79855 -0.03314
 C1882 C 0.83986 0.78628 -0.03642
 N1883 N 0.84724 0.77986 -0.04554
 N1884 N 0.85797 0.78528 -0.05094
 C1885 C 0.82741 0.77998 -0.03014
 C1886 C 0.82216 0.76786 -0.03437
 C1887 C 0.81065 0.76220 -0.02872
 C1888 C 0.80369 0.76819 -0.01833
 C1889 C 0.80899 0.78027 -0.01405
 C1890 C 0.82042 0.78598 -0.01977
 H1891 H 0.88095 0.78678 -0.06456
 H1892 H 0.90048 0.79645 -0.07418
 H1893 H 0.89153 0.83298 -0.05537
 H1894 H 0.87229 0.82303 -0.04540
 H1895 H 0.82690 0.76269 -0.04226
 H1896 H 0.80715 0.75304 -0.03264
 H1897 H 0.80414 0.78554 -0.00629
 H1898 H 0.82378 0.79526 -0.01601
 C1899 C -0.12396 -0.05354 -0.05384
 C1900 C -0.12780 -0.06663 -0.05143
 C1901 C -0.13925 -0.07236 -0.05711
 C1902 C -0.14784 -0.06539 -0.06556
 C1903 C -0.14395 -0.05224 -0.06790
 C1904 C -0.13243 -0.04655 -0.06230
 C1905 C -0.11142 -0.04731 -0.04765
 N1906 N -0.10710 -0.03512 -0.05108
 N1907 N -0.09629 -0.02978 -0.04577
 C1908 C -0.08898 -0.03617 -0.03657
 N1909 N -0.09332 -0.04834 -0.03313
 N1910 N -0.10409 -0.05371 -0.03848
 C1911 C -0.07644 -0.02995 -0.03037
 C1912 C -0.06956 -0.03586 -0.01987
 C1913 C -0.05809 -0.03018 -0.01418
 C1914 C -0.05263 -0.01823 -0.01864
 C1915 C -0.05946 -0.01236 -0.02919
 C1916 C -0.07101 -0.01798 -0.03480
 H1917 H -0.12182 -0.07264 -0.04514
 H1918 H -0.14118 -0.08248 -0.05491
 H1919 H -0.14992 -0.04605 -0.07400
 H1920 H -0.13022 -0.03649 -0.06458
 H1921 H -0.07306 -0.04501 -0.01595
 H1922 H -0.05339 -0.03533 -0.00626
 H1923 H -0.05584 -0.00331 -0.03324
 H1924 H -0.07565 -0.01290 -0.04280
 C1925 C -0.12409 0.44617 0.44575
 C1926 C -0.12944 0.43417 0.45008
 C1927 C -0.14090 0.42843 0.44441
 C1928 C -0.14803 0.43425 0.43388
 C1929 C -0.14250 0.44637 0.42962
 C1930 C -0.13102 0.45205 0.43532
 C1931 C -0.11156 0.45240 0.45197
 N1932 N -0.10626 0.46379 0.44737
 N1933 N -0.09548 0.46915 0.45273
 C1934 C -0.08916 0.46356 0.46311
 N1935 N -0.09447 0.45218 0.46770
 N1936 N -0.10524 0.44680 0.46234
 C1937 C -0.07665 0.46979 0.46933
 C1938 C -0.07025 0.46433 0.48037
 C1939 C -0.05877 0.47001 0.48605
 C1940 C -0.05287 0.48155 0.48110
 C1941 C -0.05924 0.48699 0.47004
 C1942 C -0.07075 0.48133 0.46439
 H1943 H -0.12469 0.42902 0.45798
 H1944 H -0.14383 0.41916 0.44840
 H1945 H -0.14702 0.45192 0.42193
 H1946 H -0.12759 0.46126 0.43147
 H1947 H -0.07411 0.45551 0.48469
 H1948 H -0.05441 0.46519 0.49437
 H1949 H -0.05526 0.49570 0.46560
 H1950 H -0.07500 0.48606 0.45596
 C1951 C 0.37622 -0.05399 0.44564
 C1952 C 0.37079 -0.06596 0.44997
 C1953 C 0.35936 -0.07168 0.44422
 C1954 C 0.35231 -0.06589 0.43361
 C1955 C 0.35794 -0.05380 0.42937
 C1956 C 0.36938 -0.04813 0.43514
 C1957 C 0.38872 -0.04775 0.45192
 N1958 N 0.39405 -0.03637 0.44735
 N1959 N 0.40481 -0.03100 0.45275
 C1960 C 0.41108 -0.03658 0.46316
 N1961 N 0.40575 -0.04796 0.46774
 N1962 N 0.39500 -0.05334 0.46233
 C1963 C 0.42357 -0.03033 0.46944
 C1964 C 0.42996 -0.03578 0.48048
 C1965 C 0.44141 -0.03007 0.48620
 C1966 C 0.44729 -0.01851 0.48129
 C1967 C 0.44092 -0.01307 0.47023
 C1968 C 0.42945 -0.01876 0.46453
 H1969 H 0.37547 -0.07109 0.45792
 H1970 H 0.35638 -0.08092 0.44823
 H1971 H 0.35356 -0.04825 0.42160
 H1972 H 0.37287 -0.03894 0.43128
 H1973 H 0.42612 -0.04462 0.48478
 H1974 H 0.44576 -0.03489 0.49453
 H1975 H 0.44487 -0.00433 0.46581
 H1976 H 0.42520 -0.01402 0.45610
 C1977 C 0.37603 0.44604 -0.05426
 C1978 C 0.36909 0.45190 -0.06470
 C1979 C 0.35762 0.44621 -0.07039
 C1980 C 0.35208 0.43410 -0.06612
 C1981 C 0.35922 0.42830 -0.05559
 C1982 C 0.37067 0.43404 -0.04992
 C1983 C 0.38855 0.45228 -0.04805
 N1984 N 0.39487 0.44669 -0.03768
 N1985 N 0.40564 0.45207 -0.03232
 C1986 C 0.41094 0.46345 -0.03692
 N1987 N 0.40463 0.46903 -0.04730
 N1988 N 0.39385 0.46366 -0.05265
 C1989 C 0.42346 0.46969 -0.03070
 C1990 C 0.42935 0.48123 -0.03565
 C1991 C 0.44085 0.48690 -0.03000
 C1992 C 0.44723 0.48147 -0.01894
 C1993 C 0.44134 0.46993 -0.01399
 C1994 C 0.42986 0.46424 -0.01967
 H1995 H 0.37252 0.46112 -0.06856
 H1996 H 0.35309 0.45176 -0.07809
 H1997 H 0.35629 0.41903 -0.05158
 H1998 H 0.37543 0.42890 -0.04201
 H1999 H 0.42509 0.48596 -0.04408
 H2000 H 0.44483 0.49561 -0.03444
 H2001 H 0.44569 0.46510 -0.00567
 H2002 H 0.42601 0.45542 -0.01534
 C2003 C 0.37381 0.44581 0.80416
 C2004 C 0.38213 0.45266 0.81287
 C2005 C 0.39359 0.44692 0.81852
 C2006 C 0.39757 0.43383 0.81598
 C2007 C 0.38916 0.42700 0.80726
 C2008 C 0.37775 0.43279 0.80154
 C2009 C 0.36132 0.45212 0.79795
 N2010 N 0.35412 0.44586 0.78858
 N2011 N 0.34339 0.45130 0.78321
 C2012 C 0.33899 0.46340 0.78683
 N2013 N 0.34617 0.46964 0.79622
 N2014 N 0.35693 0.46423 0.80155
 C2015 C 0.32651 0.46970 0.78060
 C2016 C 0.32102 0.48160 0.78516
 C2017 C 0.30952 0.48730 0.77952
 C2018 C 0.30279 0.48157 0.76883
 C2019 C 0.30832 0.46970 0.76424
 C2020 C 0.31974 0.46395 0.76995
 H2021 H 0.37984 0.46267 0.81533
 H2022 H 0.39944 0.45302 0.82483
 H2023 H 0.39119 0.41694 0.80486
 H2024 H 0.37189 0.42689 0.79503
 H2025 H 0.32558 0.48657 0.79328
 H2026 H 0.30585 0.49628 0.78367
 H2027 H 0.30369 0.46466 0.75620
 H2028 H 0.32328 0.45485 0.76593
 C2029 C 0.37419 -0.05391 0.30400
 C2030 C 0.38272 -0.04689 0.31236
 C2031 C 0.39421 -0.05258 0.31801
 C2032 C 0.39801 -0.06578 0.31579
 C2033 C 0.38938 -0.07279 0.30742
 C2034 C 0.37794 -0.06705 0.30171
 C2035 C 0.36167 -0.04767 0.29779
 N2036 N 0.35423 -0.05415 0.28877
 N2037 N 0.34346 -0.04877 0.28341
 C2038 C 0.33927 -0.03650 0.28668
 N2039 N 0.34670 -0.03003 0.29572
 N2040 N 0.35749 -0.03539 0.30105
 C2041 C 0.32675 -0.03027 0.28046
 C2042 C 0.32153 -0.01813 0.28467
 C2043 C 0.31000 -0.01248 0.27905
 C2044 C 0.30298 -0.01850 0.26871
 C2045 C 0.30823 -0.03063 0.26448
 C2046 C 0.31968 -0.03633 0.27018
 H2047 H 0.38058 -0.03678 0.31454
 H2048 H 0.40023 -0.04637 0.32403
 H2049 H 0.39125 -0.08294 0.30533
 H2050 H 0.37191 -0.07308 0.29549
 H2051 H 0.32632 -0.01292 0.29251
 H2052 H 0.30654 -0.00329 0.28292
 H2053 H 0.30335 -0.03592 0.25676
 H2054 H 0.32302 -0.04562 0.26645
 C2055 C 0.12512 0.55329 0.69689
 C2056 C 0.11669 0.56180 0.70388
 C2057 C 0.10522 0.56749 0.69819
 C2058 C 0.10134 0.56519 0.68503
 C2059 C 0.10987 0.55668 0.67806
 C2060 C 0.12128 0.55092 0.68379
 C2061 C 0.13762 0.54705 0.70313
 N2062 N 0.14498 0.53795 0.69667
 N2063 N 0.15573 0.53254 0.70204
 C2064 C 0.15998 0.53585 0.71428
 N2065 N 0.15264 0.54497 0.72073
 N2066 N 0.14186 0.55034 0.71537
 C2067 C 0.17249 0.52960 0.72049
 C2068 C 0.17777 0.53381 0.73261
 C2069 C 0.18933 0.52819 0.73820
 C2070 C 0.19632 0.51786 0.73215
 C2071 C 0.19100 0.51361 0.72006
 C2072 C 0.17951 0.51930 0.71442
 H2073 H 0.11891 0.56405 0.71395
 H2074 H 0.09930 0.57363 0.70437
 H2075 H 0.10791 0.55450 0.66793
 H2076 H 0.12722 0.54459 0.67779
 H2077 H 0.17302 0.54166 0.73783
 H2078 H 0.19285 0.53208 0.74736
 H2079 H 0.19587 0.50590 0.71474
 H2080 H 0.17614 0.51556 0.70514
 C2081 C 0.12528 0.05330 0.19692
 C2082 C 0.11832 0.04733 0.18656
 C2083 C 0.10686 0.05300 0.18081
 C2084 C 0.10138 0.06518 0.18493
 C2085 C 0.10854 0.07109 0.19538
 C2086 C 0.11998 0.06537 0.20112
 C2087 C 0.13777 0.04709 0.20320
 N2088 N 0.14415 0.05280 0.21348
 N2089 N 0.15490 0.04744 0.21890
 C2090 C 0.16013 0.03597 0.21445
 N2091 N 0.15377 0.03027 0.20416
 N2092 N 0.14301 0.03562 0.19876
 C2093 C 0.17264 0.02976 0.22072
 C2094 C 0.17844 0.01812 0.21591
 C2095 C 0.18997 0.01251 0.22155
 C2096 C 0.19646 0.01810 0.23247
 C2097 C 0.19064 0.02972 0.23730
 C2098 C 0.17913 0.03535 0.23163
 H2099 H 0.12170 0.03806 0.18282
 H2100 H 0.10231 0.04738 0.17318
 H2101 H 0.10565 0.08042 0.19927
 H2102 H 0.12476 0.07059 0.20896
 H2103 H 0.17410 0.01328 0.20759
 H2104 H 0.19389 0.00373 0.21720
 H2105 H 0.19510 0.03468 0.24548
 H2106 H 0.17534 0.04426 0.23584
 C2107 C 0.62401 0.69626 0.19584
 C2108 C 0.62804 0.68326 0.19846
 C2109 C 0.63947 0.67755 0.19273
 C2110 C 0.64783 0.68444 0.18400
 C2111 C 0.64376 0.69750 0.18144
 C2112 C 0.63226 0.70316 0.18711
 C2113 C 0.61148 0.70248 0.20207
 N2114 N 0.60701 0.71456 0.19847
 N2115 N 0.59621 0.71990 0.20382
 C2116 C 0.58908 0.71361 0.21322
 N2117 N 0.59357 0.70154 0.21683
 N2118 N 0.60433 0.69617 0.21145
 C2119 C 0.57657 0.71983 0.21946
 C2120 C 0.56983 0.71403 0.23011
 C2121 C 0.55838 0.71972 0.23582
 C2122 C 0.55279 0.73156 0.23124
 C2123 C 0.55948 0.73732 0.22054
 C2124 C 0.57101 0.73170 0.21490
 H2125 H 0.62223 0.67732 0.20498
 H2126 H 0.64158 0.66751 0.19513
 H2127 H 0.64955 0.70362 0.17513
 H2128 H 0.62990 0.71315 0.18465
 H2129 H 0.57343 0.70496 0.23413
 H2130 H 0.55378 0.71466 0.24387
 H2131 H 0.55576 0.74629 0.21640
 H2132 H 0.57554 0.73669 0.20678
 C2133 C 0.12474 0.69703 0.69693
 C2134 C 0.13311 0.70397 0.68834
 C2135 C 0.14457 0.69826 0.68264
 C2136 C 0.14849 0.68513 0.68502
 C2137 C 0.14002 0.67820 0.69361
 C2138 C 0.12861 0.68395 0.69938
 C2139 C 0.11226 0.70328 0.70320
 N2140 N 0.10493 0.69686 0.71236
 N2141 N 0.09420 0.70226 0.71778
 C2142 C 0.08993 0.71447 0.71442
 N2143 N 0.09724 0.72089 0.70524
 N2144 N 0.10800 0.71551 0.69986
 C2145 C 0.07744 0.72071 0.72069
 C2146 C 0.07215 0.73282 0.71645
 C2147 C 0.06061 0.73844 0.72208
 C2148 C 0.05363 0.73241 0.73244
 C2149 C 0.05897 0.72035 0.73673
 C2150 C 0.07044 0.71468 0.73103
 H2151 H 0.13087 0.71402 0.68602
 H2152 H 0.15046 0.70441 0.67643
 H2153 H 0.14201 0.66810 0.69587
 H2154 H 0.12271 0.67798 0.70578
 H2155 H 0.07690 0.73801 0.70858
 H2156 H 0.05708 0.74758 0.71815
 H2157 H 0.05412 0.71505 0.74447
 H2158 H 0.07382 0.70542 0.73480
 C2159 C 0.62618 0.19630 0.55371
 C2160 C 0.61773 0.20333 0.56215
 C2161 C 0.60622 0.19768 0.56778
 C2162 C 0.60231 0.18453 0.56547
 C2163 C 0.61087 0.17752 0.55703
 C2164 C 0.62232 0.18321 0.55133
 C2165 C 0.63871 0.20250 0.54751
 N2166 N 0.64608 0.19602 0.53842
 N2167 N 0.65686 0.20137 0.53305
 C2168 C 0.66114 0.21359 0.53639
 N2169 N 0.65378 0.22005 0.54550
 N2170 N 0.64298 0.21473 0.55083
 C2171 C 0.67366 0.21978 0.53017
 C2172 C 0.67897 0.23186 0.53444
 C2173 C 0.69051 0.23747 0.52882
 C2174 C 0.69746 0.23145 0.51843
 C2175 C 0.69213 0.21938 0.51415
 C2176 C 0.68066 0.21373 0.51984
 H2177 H 0.61996 0.21340 0.56440
 H2178 H 0.60026 0.20389 0.57387
 H2179 H 0.60890 0.16740 0.55484
 H2180 H 0.62829 0.17718 0.54504
 H2181 H 0.67422 0.23706 0.54231
 H2182 H 0.69403 0.24662 0.53272
 H2183 H 0.69695 0.21412 0.50637
 H2184 H 0.67726 0.20447 0.51607
 C2185 C 0.62616 0.69616 0.05377
 C2186 C 0.61764 0.68779 0.04675
 C2187 C 0.60615 0.68214 0.05245
 C2188 C 0.60235 0.68435 0.06565
 C2189 C 0.61098 0.69272 0.07265
 C2190 C 0.62241 0.69844 0.06692
 C2191 C 0.63868 0.70238 0.04753
 N2192 N 0.64611 0.71141 0.05401
 N2193 N 0.65687 0.71679 0.04863
 C2194 C 0.66107 0.71351 0.03636
 N2195 N 0.65366 0.70446 0.02989
 N2196 N 0.64287 0.69912 0.03526
 C2197 C 0.67358 0.71974 0.03012
 C2198 C 0.67883 0.71552 0.01799
 C2199 C 0.69035 0.72116 0.01234
 C2200 C 0.69734 0.73152 0.01836
 C2201 C 0.69207 0.73576 0.03047
 C2202 C 0.68063 0.73005 0.03617
 H2203 H 0.61979 0.68561 0.03665
 H2204 H 0.60015 0.67612 0.04622
 H2205 H 0.60910 0.69483 0.08280
 H2206 H 0.62843 0.70467 0.07295
 H2207 H 0.67405 0.70767 0.01279
 H2208 H 0.69382 0.71728 0.00316
 H2209 H 0.69693 0.74351 0.03575
 H2210 H 0.67728 0.73379 0.04545
 C2211 C 0.12501 0.05366 0.05337
 C2212 C 0.13197 0.04771 0.06374
 C2213 C 0.14340 0.05341 0.06951
 C2214 C 0.14886 0.06561 0.06540
 C2215 C 0.14170 0.07149 0.05492
 C2216 C 0.13029 0.06574 0.04917
 C2217 C 0.11253 0.04741 0.04707
 N2218 N 0.10616 0.05308 0.03677
 N2219 N 0.09543 0.04769 0.03135
 C2220 C 0.09021 0.03621 0.03581
 N2221 N 0.09657 0.03055 0.04612
 N2222 N 0.10731 0.03593 0.05153
 C2223 C 0.07773 0.02996 0.02952
 C2224 C 0.07192 0.01832 0.03435
 C2225 C 0.06041 0.01268 0.02869
 C2226 C 0.05394 0.01823 0.01774
 C2227 C 0.05976 0.02985 0.01289
 C2228 C 0.07125 0.03551 0.01858
 H2229 H 0.12861 0.03843 0.06748
 H2230 H 0.14795 0.04780 0.07715
 H2231 H 0.14459 0.08082 0.05103
 H2232 H 0.12551 0.07094 0.04132
 H2233 H 0.07624 0.01352 0.04269
 H2234 H 0.05649 0.00391 0.03306
 H2235 H 0.05532 0.03477 0.00468
 H2236 H 0.07504 0.04441 0.01435
 C2237 C 0.12480 0.55331 0.55295
 C2238 C 0.12869 0.56638 0.55049
 C2239 C 0.14010 0.57213 0.55625
 C2240 C 0.14855 0.56520 0.56486
 C2241 C 0.14461 0.55208 0.56726
 C2242 C 0.13316 0.54637 0.56156
 C2243 C 0.11232 0.54706 0.54668
 N2244 N 0.10802 0.53485 0.55005
 N2245 N 0.09726 0.52948 0.54467
 C2246 C 0.08998 0.53587 0.53546
 N2247 N 0.09429 0.54807 0.53207
 N2248 N 0.10502 0.55346 0.53749
 C2249 C 0.07749 0.52963 0.52919
 C2250 C 0.07053 0.53563 0.51879
 C2251 C 0.05906 0.52997 0.51309
 C2252 C 0.05369 0.51793 0.51742
 C2253 C 0.06063 0.51194 0.52783
 C2254 C 0.07216 0.51756 0.53346
 H2255 H 0.12280 0.57235 0.54407
 H2256 H 0.14210 0.58222 0.55398
 H2257 H 0.15049 0.54593 0.57349
 H2258 H 0.13090 0.53633 0.56390
 H2259 H 0.07394 0.54487 0.51500
 H2260 H 0.05424 0.53523 0.50531
 H2261 H 0.05706 0.50283 0.53179
 H2262 H 0.07687 0.51240 0.54138
 C2263 C 0.62454 0.05406 0.55342
 C2264 C 0.62826 0.06721 0.55115
 C2265 C 0.63961 0.07301 0.55696
 C2266 C 0.64819 0.06607 0.56543
 C2267 C 0.64442 0.05286 0.56765
 C2268 C 0.63301 0.04710 0.56190
 C2269 C 0.61210 0.04774 0.54710
 N2270 N 0.60797 0.03543 0.55029
 N2271 N 0.59726 0.03001 0.54486
 C2272 C 0.58987 0.03645 0.53577
 N2273 N 0.59401 0.04875 0.53255
 N2274 N 0.60470 0.05419 0.53802
 C2275 C 0.57743 0.03015 0.52944
 C2276 C 0.57036 0.03622 0.51916
 C2277 C 0.55893 0.03050 0.51342
 C2278 C 0.55372 0.01834 0.51758
 C2279 C 0.56076 0.01229 0.52789
 C2280 C 0.57226 0.01795 0.53356
 H2281 H 0.62227 0.07320 0.54484
 H2282 H 0.64148 0.08317 0.55484
 H2283 H 0.65040 0.04670 0.57376
 H2284 H 0.63088 0.03699 0.56409
 H2285 H 0.57365 0.04555 0.51549
 H2286 H 0.55402 0.03583 0.50574
 H2287 H 0.55732 0.00307 0.53172
 H2288 H 0.57705 0.01273 0.54138
 C2289 C 0.62457 0.55361 0.05317
 C2290 C 0.63302 0.54667 0.06169
 C2291 C 0.64445 0.55243 0.06739
 C2292 C 0.64826 0.56562 0.06510
 C2293 C 0.63970 0.57254 0.05659
 C2294 C 0.62833 0.56674 0.05082
 C2295 C 0.61213 0.54729 0.04689
 N2296 N 0.60476 0.55369 0.03775
 N2297 N 0.59406 0.54825 0.03232
 C2298 C 0.58986 0.53599 0.03564
 N2299 N 0.59721 0.52960 0.04480
 N2300 N 0.60794 0.53503 0.05020
 C2301 C 0.57741 0.52969 0.02935
 C2302 C 0.57215 0.51758 0.03360
 C2303 C 0.56064 0.51192 0.02796
 C2304 C 0.55368 0.51789 0.01755
 C2305 C 0.55899 0.52996 0.01326
 C2306 C 0.57043 0.53568 0.01897
 H2307 H 0.63087 0.53658 0.06393
 H2308 H 0.65042 0.54627 0.07352
 H2309 H 0.64159 0.58267 0.05440
 H2310 H 0.62236 0.57271 0.04448
 H2311 H 0.57689 0.51242 0.04150
 H2312 H 0.55713 0.50277 0.03189
 H2313 H 0.55416 0.53522 0.00548
 H2314 H 0.57379 0.54495 0.01520
 C2315 C 0.05362 0.05306 0.12492
 C2316 C 0.05143 0.06622 0.12863
 C2317 C 0.05721 0.07196 0.14003
 C2318 C 0.06555 0.06493 0.14867
 C2319 C 0.06767 0.05171 0.14491
 C2320 C 0.06197 0.04601 0.13345
 C2321 C 0.04733 0.04682 0.11244
 N2322 N 0.05051 0.03451 0.10828
 N2323 N 0.04511 0.02915 0.09752
 C2324 C 0.03607 0.03566 0.09012
 N2325 N 0.03288 0.04795 0.09430
 N2326 N 0.03832 0.05333 0.10503
 C2327 C 0.02978 0.02944 0.07764
 C2328 C 0.01950 0.03554 0.07061
 C2329 C 0.01377 0.02990 0.05914
 C2330 C 0.01797 0.01779 0.05384
 C2331 C 0.02828 0.01170 0.06084
 C2332 C 0.03393 0.01729 0.07238
 H2333 H 0.04523 0.07228 0.12261
 H2334 H 0.05516 0.08213 0.14189
 H2335 H 0.07366 0.04548 0.15094
 H2336 H 0.06408 0.03588 0.13133
 H2337 H 0.01580 0.04485 0.07396
 H2338 H 0.00609 0.03525 0.05426
 H2339 H 0.03214 0.00252 0.05734
 H2340 H 0.04175 0.01205 0.07715
 C2341 C 0.05313 0.55331 0.62476
 C2342 C 0.06621 0.55089 0.62863
 C2343 C 0.07195 0.55666 0.64003
 C2344 C 0.06500 0.56524 0.64850
 C2345 C 0.05186 0.56759 0.64459
 C2346 C 0.04617 0.56188 0.63313
 C2347 C 0.04689 0.54703 0.61228
 N2348 N 0.03464 0.55031 0.60804
 N2349 N 0.02928 0.54492 0.59728
 C2350 C 0.03572 0.53578 0.58995
 N2351 N 0.04796 0.53248 0.59421
 N2352 N 0.05334 0.53790 0.60494
 C2353 C 0.02950 0.52949 0.57746
 C2354 C 0.03560 0.51921 0.57043
 C2355 C 0.02996 0.51350 0.55896
 C2356 C 0.01785 0.51770 0.55366
 C2357 C 0.01176 0.52801 0.56067
 C2358 C 0.01735 0.53365 0.57221
 H2359 H 0.07220 0.54450 0.62273
 H2360 H 0.08206 0.55444 0.64202
 H2361 H 0.04570 0.57379 0.65048
 H2362 H 0.03611 0.56417 0.63089
 H2363 H 0.04490 0.51551 0.57379
 H2364 H 0.03530 0.50581 0.55408
 H2365 H 0.00258 0.53187 0.55717
 H2366 H 0.01212 0.54148 0.57698
 C2367 C 0.55361 0.05349 0.62476
 C2368 C 0.54949 0.06566 0.62990
 C2369 C 0.55523 0.07147 0.64129
 C2370 C 0.56560 0.06556 0.64858
 C2371 C 0.56964 0.05328 0.64326
 C2372 C 0.56390 0.04752 0.63184
 C2373 C 0.54732 0.04718 0.61231
 N2374 N 0.55174 0.03565 0.60717
 N2375 N 0.54633 0.03023 0.59644
 C2376 C 0.53606 0.03590 0.59003
 N2377 N 0.53163 0.04742 0.59517
 N2378 N 0.53706 0.05285 0.60588
 C2379 C 0.52976 0.02961 0.57756
 C2380 C 0.51880 0.03513 0.57109
 C2381 C 0.51310 0.02944 0.55963
 C2382 C 0.51795 0.01782 0.55381
 C2383 C 0.52891 0.01229 0.56027
 C2384 C 0.53458 0.01796 0.57177
 H2385 H 0.54173 0.07089 0.62502
 H2386 H 0.55143 0.08088 0.64402
 H2387 H 0.57719 0.04764 0.64794
 H2388 H 0.56757 0.03817 0.62859
 H2389 H 0.51457 0.04404 0.57487
 H2390 H 0.50488 0.03436 0.55519
 H2391 H 0.53329 0.00352 0.55635
 H2392 H 0.54294 0.01317 0.57609
 C2393 C 0.55324 0.55334 0.12460
 C2394 C 0.56160 0.54634 0.13315
 C2395 C 0.56731 0.55209 0.14458
 C2396 C 0.56519 0.56533 0.14829
 C2397 C 0.55683 0.57232 0.13963
 C2398 C 0.55105 0.56653 0.12826
 C2399 C 0.54696 0.54705 0.11216
 N2400 N 0.53795 0.55352 0.10471
 N2401 N 0.53251 0.54809 0.09400
 C2402 C 0.53571 0.53578 0.08989
 N2403 N 0.54475 0.52931 0.09732
 N2404 N 0.55014 0.53472 0.10806
 C2405 C 0.52943 0.52949 0.07743
 C2406 C 0.53357 0.51731 0.07225
 C2407 C 0.52794 0.51166 0.06073
 C2408 C 0.51764 0.51773 0.05368
 C2409 C 0.51345 0.52987 0.05892
 C2410 C 0.51916 0.53557 0.07036
 H2411 H 0.56371 0.53621 0.13108
 H2412 H 0.57332 0.54588 0.15062
 H2413 H 0.55478 0.58249 0.14144
 H2414 H 0.54483 0.57255 0.12221
 H2415 H 0.54139 0.51209 0.07706
 H2416 H 0.53179 0.50246 0.05728
 H2417 H 0.50577 0.53520 0.05400
 H2418 H 0.51547 0.54489 0.07366
 C2419 C 0.19683 0.55337 0.62514
 C2420 C 0.19919 0.56649 0.62134
 C2421 C 0.19342 0.57224 0.60994
 C2422 C 0.18491 0.56529 0.60140
 C2423 C 0.18261 0.55212 0.60527
 C2424 C 0.18832 0.54641 0.61672
 C2425 C 0.20311 0.54711 0.63762
 N2426 N 0.19984 0.53485 0.64183
 N2427 N 0.20524 0.52947 0.65258
 C2428 C 0.21437 0.53590 0.65993
 N2429 N 0.21766 0.54815 0.65570
 N2430 N 0.21223 0.55355 0.64498
 C2431 C 0.22066 0.52966 0.67240
 C2432 C 0.23098 0.53571 0.67943
 C2433 C 0.23669 0.53003 0.69089
 C2434 C 0.23245 0.51793 0.69618
 C2435 C 0.22210 0.51190 0.68919
 C2436 C 0.21646 0.51752 0.67766
 H2437 H 0.20553 0.57248 0.62728
 H2438 H 0.19561 0.58237 0.60801
 H2439 H 0.17648 0.54595 0.59932
 H2440 H 0.18607 0.53633 0.61891
 H2441 H 0.23471 0.54499 0.67607
 H2442 H 0.24440 0.53535 0.69576
 H2443 H 0.21820 0.50273 0.69269
 H2444 H 0.20860 0.51232 0.67290
 C2445 C 0.19665 0.05335 0.12536
 C2446 C 0.19884 0.06653 0.12169
 C2447 C 0.19306 0.07232 0.11031
 C2448 C 0.18470 0.06533 0.10166
 C2449 C 0.18259 0.05208 0.10537
 C2450 C 0.18830 0.04634 0.11680
 C2451 C 0.20295 0.04705 0.13781
 N2452 N 0.19976 0.03474 0.14194
 N2453 N 0.20516 0.02933 0.15267
 C2454 C 0.21422 0.03579 0.16009
 N2455 N 0.21743 0.04810 0.15594
 N2456 N 0.21198 0.05352 0.14524
 C2457 C 0.22052 0.02952 0.17254
 C2458 C 0.23083 0.03557 0.17957
 C2459 C 0.23657 0.02988 0.19101
 C2460 C 0.23235 0.01776 0.19629
 C2461 C 0.22201 0.01172 0.18929
 C2462 C 0.21635 0.01736 0.17778
 H2463 H 0.20505 0.07256 0.12774
 H2464 H 0.19511 0.08249 0.10850
 H2465 H 0.17660 0.04587 0.09932
 H2466 H 0.18619 0.03621 0.11888
 H2467 H 0.23455 0.04487 0.17624
 H2468 H 0.24427 0.03519 0.19589
 H2469 H 0.21813 0.00254 0.19278
 H2470 H 0.20850 0.01215 0.17301
 C2471 C 0.69618 0.19590 0.62381
 C2472 C 0.69845 0.18275 0.62752
 C2473 C 0.69275 0.17699 0.63896
 C2474 C 0.68442 0.18399 0.64763
 C2475 C 0.68221 0.19720 0.64386
 C2476 C 0.68784 0.20291 0.63237
 C2477 C 0.70239 0.20216 0.61129
 N2478 N 0.69916 0.21446 0.60714
 N2479 N 0.70449 0.21983 0.59635
 C2480 C 0.71352 0.21336 0.58891
 N2481 N 0.71677 0.20107 0.59308
 N2482 N 0.71140 0.19568 0.60383
 C2483 C 0.71975 0.21961 0.57640
 C2484 C 0.73002 0.21354 0.56933
 C2485 C 0.73574 0.21924 0.55788
 C2486 C 0.73153 0.23138 0.55264
 C2487 C 0.72120 0.23741 0.55966
 C2488 C 0.71556 0.23176 0.57118
 H2489 H 0.70465 0.17672 0.62147
 H2490 H 0.69484 0.16683 0.64080
 H2491 H 0.67620 0.20340 0.64991
 H2492 H 0.68567 0.21303 0.63025
 H2493 H 0.73374 0.20424 0.57265
 H2494 H 0.74346 0.21395 0.55301
 H2495 H 0.71735 0.24662 0.55621
 H2496 H 0.70774 0.23698 0.57598
 C2497 C 0.69594 0.69629 0.12361
 C2498 C 0.68734 0.70321 0.13198
 C2499 C 0.68170 0.69751 0.14347
 C2500 C 0.68415 0.68440 0.14742
 C2501 C 0.69275 0.67749 0.13895
 C2502 C 0.69846 0.68323 0.12751
 C2503 C 0.70216 0.70254 0.11109
 N2504 N 0.71141 0.69619 0.10382
 N2505 N 0.71679 0.70158 0.09307
 C2506 C 0.71330 0.71374 0.08872
 N2507 N 0.70403 0.72008 0.09597
 N2508 N 0.69869 0.71471 0.10675
 C2509 C 0.71954 0.71998 0.07622
 C2510 C 0.71513 0.73198 0.07080
 C2511 C 0.72078 0.73763 0.05929
 C2512 C 0.73134 0.73176 0.05247
 C2513 C 0.73577 0.71979 0.05792
 C2514 C 0.73005 0.71409 0.06935
 H2515 H 0.68497 0.71325 0.12971
 H2516 H 0.67549 0.70365 0.14936
 H2517 H 0.69507 0.66741 0.14095
 H2518 H 0.70488 0.67728 0.12161
 H2519 H 0.70712 0.73705 0.07543
 H2520 H 0.71676 0.74669 0.05568
 H2521 H 0.74370 0.71465 0.05322
 H2522 H 0.73395 0.70492 0.07284
 C2523 C 0.55409 0.69626 0.12596
 C2524 C 0.56250 0.70327 0.11746
 C2525 C 0.56816 0.69758 0.10598
 C2526 C 0.56592 0.68439 0.10214
 C2527 C 0.55750 0.67740 0.11074
 C2528 C 0.55178 0.68313 0.12217
 C2529 C 0.54787 0.70250 0.13847
 N2530 N 0.53884 0.69601 0.14590
 N2531 N 0.53346 0.70139 0.15666
 C2532 C 0.53672 0.71366 0.16086
 N2533 N 0.54577 0.72014 0.15344
 N2534 N 0.55111 0.71477 0.14266
 C2535 C 0.53049 0.71989 0.17337
 C2536 C 0.53466 0.73206 0.17858
 C2537 C 0.52903 0.73770 0.19010
 C2538 C 0.51872 0.73166 0.19714
 C2539 C 0.51453 0.71951 0.19191
 C2540 C 0.52023 0.71381 0.18046
 H2541 H 0.56471 0.71336 0.11963
 H2542 H 0.57422 0.70379 0.10000
 H2543 H 0.55536 0.66726 0.10883
 H2544 H 0.54552 0.67710 0.12817
 H2545 H 0.54247 0.73728 0.17377
 H2546 H 0.53287 0.74692 0.19353
 H2547 H 0.50682 0.71420 0.19681
 H2548 H 0.51652 0.70450 0.17715
 C2549 C 0.05308 0.69704 0.62512
 C2550 C 0.06150 0.70404 0.61662
 C2551 C 0.06718 0.69832 0.60517
 C2552 C 0.06497 0.68511 0.60138
 C2553 C 0.05655 0.67814 0.60999
 C2554 C 0.05080 0.68390 0.62139
 C2555 C 0.04683 0.70331 0.63760
 N2556 N 0.03775 0.69686 0.64500
 N2557 N 0.03235 0.70227 0.65573
 C2558 C 0.03564 0.71453 0.65993
 N2559 N 0.04474 0.72097 0.65255
 N2560 N 0.05011 0.71558 0.64179
 C2561 C 0.02939 0.72079 0.67242
 C2562 C 0.03365 0.73289 0.67769
 C2563 C 0.02804 0.73852 0.68923
 C2564 C 0.01767 0.73251 0.69621
 C2565 C 0.01336 0.72045 0.69089
 C2566 C 0.01905 0.71477 0.67942
 H2567 H 0.06368 0.71414 0.61876
 H2568 H 0.07323 0.70452 0.59917
 H2569 H 0.05444 0.66798 0.60812
 H2570 H 0.04454 0.67788 0.62740
 H2571 H 0.04153 0.73807 0.67294
 H2572 H 0.03198 0.74766 0.69275
 H2573 H 0.00562 0.71517 0.69576
 H2574 H 0.01527 0.70551 0.67605
 C2575 C 0.55363 0.62591 0.19626
 C2576 C 0.56673 0.62205 0.19863
 C2577 C 0.57241 0.61058 0.19293
 C2578 C 0.56539 0.60201 0.18451
 C2579 C 0.55223 0.60593 0.18222
 C2580 C 0.54660 0.61746 0.18784
 C2581 C 0.54745 0.63847 0.20245
 N2582 N 0.53526 0.64280 0.19905
 N2583 N 0.52995 0.65363 0.20436
 C2584 C 0.53639 0.66093 0.21352
 N2585 N 0.54856 0.65659 0.21694
 N2586 N 0.55390 0.64580 0.21159
 C2587 C 0.53021 0.67348 0.21972
 C2588 C 0.53615 0.68038 0.23019
 C2589 C 0.53050 0.69186 0.23587
 C2590 C 0.51855 0.69732 0.23143
 C2591 C 0.51263 0.69047 0.22091
 C2592 C 0.51823 0.67891 0.21531
 H2593 H 0.57277 0.62802 0.20490
 H2594 H 0.58253 0.60863 0.19511
 H2595 H 0.54600 0.59997 0.17616
 H2596 H 0.53652 0.61968 0.18560
 H2597 H 0.54532 0.67688 0.23409
 H2598 H 0.53567 0.69658 0.24376
 H2599 H 0.50357 0.69409 0.21689
 H2600 H 0.51312 0.67426 0.20733
 C2601 C 0.05314 0.62561 0.69661
 C2602 C 0.06623 0.62177 0.69904
 C2603 C 0.07199 0.61036 0.69332
 C2604 C 0.06506 0.60183 0.68478
 C2605 C 0.05191 0.60572 0.68241
 C2606 C 0.04619 0.61719 0.68807
 C2607 C 0.04687 0.63810 0.70285
 N2608 N 0.03466 0.64237 0.69946
 N2609 N 0.02927 0.65314 0.70481
 C2610 C 0.03565 0.66044 0.71402
 N2611 N 0.04785 0.65615 0.71743
 N2612 N 0.05326 0.64541 0.71204
 C2613 C 0.02940 0.67293 0.72027
 C2614 C 0.03536 0.67985 0.73071
 C2615 C 0.02968 0.69132 0.73640
 C2616 C 0.01768 0.69672 0.73202
 C2617 C 0.01174 0.68983 0.72155
 C2618 C 0.01736 0.67829 0.71593
 H2619 H 0.07220 0.62771 0.70541
 H2620 H 0.08210 0.60841 0.69556
 H2621 H 0.04575 0.59978 0.67625
 H2622 H 0.03613 0.61940 0.68577
 H2623 H 0.04457 0.67641 0.73455
 H2624 H 0.03491 0.69610 0.74423
 H2625 H 0.00265 0.69342 0.71755
 H2626 H 0.01224 0.67361 0.70798
 C2627 C 0.05378 0.12479 0.05343
 C2628 C 0.04909 0.13050 0.06512
 C2629 C 0.05484 0.14191 0.07088
 C2630 C 0.06581 0.14864 0.06540
 C2631 C 0.07043 0.14272 0.05360
 C2632 C 0.06465 0.13131 0.04789
 C2633 C 0.04749 0.11232 0.04717
 N2634 N 0.05230 0.10679 0.03598
 N2635 N 0.04689 0.09605 0.03060
 C2636 C 0.03623 0.09001 0.03597
 N2637 N 0.03142 0.09554 0.04715
 N2638 N 0.03684 0.10627 0.05254
 C2639 C 0.02995 0.07753 0.02972
 C2640 C 0.01878 0.07127 0.03506
 C2641 C 0.01309 0.05979 0.02940
 C2642 C 0.01815 0.05377 0.01798
 C2643 C 0.02931 0.06003 0.01263
 C2644 C 0.03499 0.07152 0.01827
 H2645 H 0.04083 0.12608 0.07000
 H2646 H 0.05046 0.14516 0.07986
 H2647 H 0.07858 0.14678 0.04836
 H2648 H 0.06881 0.12757 0.03893
 H2649 H 0.01438 0.07523 0.04380
 H2650 H 0.00470 0.05552 0.03417
 H2651 H 0.03385 0.05593 0.00402
 H2652 H 0.04351 0.07567 0.01363
 C2653 C 0.05305 0.62482 0.55315
 C2654 C 0.04606 0.63331 0.56157
 C2655 C 0.05176 0.64479 0.56723
 C2656 C 0.06495 0.64860 0.56499
 C2657 C 0.07193 0.64000 0.55657
 C2658 C 0.06619 0.62858 0.55084
 C2659 C 0.04680 0.61231 0.54693
 N2660 N 0.05325 0.60492 0.53784
 N2661 N 0.04785 0.59417 0.53246
 C2662 C 0.03561 0.58995 0.53577
 N2663 N 0.02917 0.59732 0.54488
 N2664 N 0.03454 0.60810 0.55023
 C2665 C 0.02937 0.57744 0.52954
 C2666 C 0.01728 0.57214 0.53382
 C2667 C 0.01168 0.56058 0.52822
 C2668 C 0.01769 0.55361 0.51783
 C2669 C 0.02973 0.55897 0.51351
 C2670 C 0.03539 0.57045 0.51919
 H2671 H 0.03596 0.63116 0.56377
 H2672 H 0.04555 0.65077 0.57329
 H2673 H 0.08208 0.64189 0.55443
 H2674 H 0.07220 0.62258 0.54458
 H2675 H 0.01211 0.57688 0.54170
 H2676 H 0.00255 0.55703 0.53216
 H2677 H 0.03501 0.55413 0.50575
 H2678 H 0.04464 0.57384 0.51540
 C2679 C 0.55349 0.12477 0.55330
 C2680 C 0.55115 0.12860 0.56640
 C2681 C 0.55696 0.13998 0.57213
 C2682 C 0.56549 0.14847 0.56515
 C2683 C 0.56776 0.14459 0.55198
 C2684 C 0.56201 0.13316 0.54630
 C2685 C 0.54718 0.11232 0.54707
 N2686 N 0.55045 0.10806 0.53483
 N2687 N 0.54503 0.09731 0.52948
 C2688 C 0.53587 0.09001 0.53593
 N2689 N 0.53259 0.09428 0.54817
 N2690 N 0.53804 0.10500 0.55354
 C2691 C 0.52957 0.07755 0.52972
 C2692 C 0.51922 0.07059 0.53578
 C2693 C 0.51348 0.05913 0.53013
 C2694 C 0.51773 0.05380 0.51805
 C2695 C 0.52811 0.06073 0.51201
 C2696 C 0.53378 0.07225 0.51761
 H2697 H 0.54480 0.12268 0.57241
 H2698 H 0.55480 0.14194 0.58226
 H2699 H 0.57391 0.15050 0.54579
 H2700 H 0.56424 0.13094 0.53622
 H2701 H 0.51548 0.07398 0.54505
 H2702 H 0.50573 0.05430 0.53543
 H2703 H 0.53201 0.05719 0.50287
 H2704 H 0.54166 0.07697 0.51241
 C2705 C 0.55370 0.62438 0.05360
 C2706 C 0.54675 0.63285 0.06208
 C2707 C 0.55251 0.64427 0.06781
 C2708 C 0.56572 0.64805 0.06556
 C2709 C 0.57265 0.63948 0.05708
 C2710 C 0.56685 0.62811 0.05128
 C2711 C 0.54739 0.61194 0.04730
 N2712 N 0.55379 0.60459 0.03815
 N2713 N 0.54835 0.59390 0.03271
 C2714 C 0.53610 0.58969 0.03602
 N2715 N 0.52970 0.59702 0.04520
 N2716 N 0.53513 0.60775 0.05060
 C2717 C 0.52980 0.57724 0.02972
 C2718 C 0.51770 0.57195 0.03399
 C2719 C 0.51203 0.56046 0.02833
 C2720 C 0.51798 0.55354 0.01787
 C2721 C 0.53004 0.55888 0.01356
 C2722 C 0.53576 0.57030 0.01930
 H2723 H 0.53665 0.63072 0.06429
 H2724 H 0.54634 0.65024 0.07391
 H2725 H 0.58279 0.64134 0.05493
 H2726 H 0.57283 0.62213 0.04497
 H2727 H 0.51257 0.57666 0.04193
 H2728 H 0.50291 0.55692 0.03228
 H2729 H 0.53527 0.55407 0.00575
 H2730 H 0.54501 0.57368 0.01551
 C2731 C 0.69636 0.12596 0.55385
 C2732 C 0.68477 0.12017 0.54903
 C2733 C 0.67902 0.10871 0.55470
 C2734 C 0.68441 0.10200 0.56573
 C2735 C 0.69612 0.10801 0.57049
 C2736 C 0.70182 0.11947 0.56478
 C2737 C 0.70261 0.13849 0.54765
 N2738 N 0.71373 0.14407 0.55256
 N2739 N 0.71911 0.15485 0.54722
 C2740 C 0.71380 0.16089 0.53653
 N2741 N 0.70269 0.15532 0.53162
 N2742 N 0.69730 0.14454 0.53697
 C2743 C 0.72006 0.17341 0.53032
 C2744 C 0.71476 0.17970 0.51915
 C2745 C 0.72045 0.19118 0.51349
 C2746 C 0.73187 0.19719 0.51859
 C2747 C 0.73716 0.19092 0.52977
 C2748 C 0.73147 0.17943 0.53542
 H2749 H 0.67996 0.12455 0.54071
 H2750 H 0.67013 0.10538 0.55020
 H2751 H 0.70128 0.10399 0.57871
 H2752 H 0.71070 0.12327 0.56906
 H2753 H 0.70604 0.17575 0.51469
 H2754 H 0.71574 0.19544 0.50505
 H2755 H 0.74578 0.19498 0.53433
 H2756 H 0.73609 0.17527 0.54396
 C2757 C 0.69656 0.62596 0.05333
 C2758 C 0.68801 0.61760 0.04633
 C2759 C 0.68236 0.60608 0.05196
 C2760 C 0.68475 0.60208 0.06508
 C2761 C 0.69331 0.61055 0.07206
 C2762 C 0.69903 0.62201 0.06638
 C2763 C 0.70277 0.63852 0.04715
 N2764 N 0.71199 0.64577 0.05357
 N2765 N 0.71735 0.65657 0.04824
 C2766 C 0.71388 0.66098 0.03610
 N2767 N 0.70463 0.65374 0.02970
 N2768 N 0.69931 0.64292 0.03501
 C2769 C 0.72009 0.67353 0.02993
 C2770 C 0.71565 0.67902 0.01798
 C2771 C 0.72126 0.69058 0.01240
 C2772 C 0.73181 0.69739 0.01830
 C2773 C 0.73629 0.69187 0.03021
 C2774 C 0.73060 0.68038 0.03585
 H2775 H 0.68568 0.61990 0.03630
 H2776 H 0.67618 0.60021 0.04576
 H2777 H 0.69556 0.60851 0.08215
 H2778 H 0.70540 0.62790 0.07239
 H2779 H 0.70764 0.67440 0.01289
 H2780 H 0.71720 0.69424 0.00337
 H2781 H 0.74422 0.69655 0.03537
 H2782 H 0.73453 0.67684 0.04499
 C2783 C 0.19680 0.62495 0.69700
 C2784 C 0.20381 0.63338 0.68852
 C2785 C 0.19813 0.64485 0.68283
 C2786 C 0.18497 0.64874 0.68511
 C2787 C 0.17798 0.64021 0.69360
 C2788 C 0.18369 0.62879 0.69935
 C2789 C 0.20302 0.61244 0.70324
 N2790 N 0.19654 0.60505 0.71232
 N2791 N 0.20190 0.59430 0.71771
 C2792 C 0.21414 0.59005 0.71442
 N2793 N 0.22061 0.59741 0.70532
 N2794 N 0.21527 0.60820 0.69997
 C2795 C 0.22035 0.57753 0.72065
 C2796 C 0.23249 0.57228 0.71645
 C2797 C 0.23808 0.56072 0.72205
 C2798 C 0.23202 0.55368 0.73235
 C2799 C 0.21992 0.55898 0.73660
 C2800 C 0.21427 0.57047 0.73093
 H2801 H 0.21388 0.63116 0.68629
 H2802 H 0.20434 0.65078 0.67672
 H2803 H 0.16785 0.64217 0.69576
 H2804 H 0.17767 0.62284 0.70567
 H2805 H 0.23771 0.57706 0.70862
 H2806 H 0.24725 0.55722 0.71815
 H2807 H 0.21459 0.55408 0.74428
 H2808 H 0.20498 0.57383 0.73466
 C2809 C 0.19690 0.12472 0.19647
 C2810 C 0.18519 0.13040 0.20114
 C2811 C 0.17943 0.14181 0.19540
 C2812 C 0.18493 0.14858 0.18445
 C2813 C 0.19675 0.14268 0.17986
 C2814 C 0.20246 0.13126 0.18563
 C2815 C 0.20316 0.11224 0.20276
 N2816 N 0.21436 0.10673 0.19797
 N2817 N 0.21975 0.09599 0.20338
 C2818 C 0.21436 0.08992 0.21400
 N2819 N 0.20315 0.09543 0.21879
 N2820 N 0.19776 0.10617 0.21338
 C2821 C 0.22061 0.07744 0.22028
 C2822 C 0.21524 0.07115 0.23142
 C2823 C 0.22090 0.05967 0.23711
 C2824 C 0.23235 0.05367 0.23207
 C2825 C 0.23772 0.05995 0.22093
 C2826 C 0.23207 0.07145 0.21526
 H2827 H 0.18029 0.12596 0.20938
 H2828 H 0.17043 0.14504 0.19975
 H2829 H 0.20201 0.14677 0.17173
 H2830 H 0.21143 0.12754 0.18148
 H2831 H 0.20648 0.07509 0.23581
 H2832 H 0.21611 0.05537 0.24548
 H2833 H 0.24634 0.05588 0.21640
 H2834 H 0.23673 0.07562 0.20675
 C2835 C 0.69631 1.12417 0.69582
 C2836 C 0.70189 1.13075 0.68501
 C2837 C 0.69622 1.14223 0.67931
 C2838 C 0.68442 1.14815 0.68394
 C2839 C 0.67890 1.14134 0.69485
 C2840 C 0.68462 1.12988 0.70053
 C2841 C 0.70252 1.11163 0.70204
 N2842 N 0.69711 1.10552 0.71263
 N2843 N 0.70246 1.09474 0.71798
 C2844 C 0.71364 1.08921 0.71316
 N2845 N 0.71905 1.09532 0.70257
 N2846 N 0.71371 1.10611 0.69722
 C2847 C 0.71986 1.07668 0.71939
 C2848 C 0.73131 1.07068 0.71436
 C2849 C 0.73695 1.05918 0.72003
 C2850 C 0.73157 1.05289 0.73117
 C2851 C 0.72012 1.05889 0.73619
 C2852 C 0.71447 1.07038 0.73051
 H2853 H 0.71084 1.12702 0.68084
 H2854 H 0.70149 1.14634 0.67120
 H2855 H 0.66992 1.14458 0.69923
 H2856 H 0.67971 1.12541 0.70874
 H2857 H 0.73599 1.07486 0.70587
 H2858 H 0.74561 1.05513 0.71554
 H2859 H 0.71535 1.05462 0.74458
 H2860 H 0.70572 1.07432 0.73490
 C2861 C 0.69659 0.62463 0.19626
 C2862 C 0.70351 0.63302 0.18767
 C2863 C 0.69775 0.64443 0.18193
 C2864 C 0.68459 0.64829 0.18426
 C2865 C 0.67769 0.63980 0.19286
 C2866 C 0.68349 0.62844 0.19867
 C2867 C 0.70290 0.61219 0.20257
 N2868 N 0.69653 0.60488 0.21177
 N2869 N 0.70197 0.59419 0.21722
 C2870 C 0.71419 0.58993 0.21385
 N2871 N 0.72055 0.59722 0.20463
 N2872 N 0.71514 0.60795 0.19922
 C2873 C 0.72048 0.57748 0.22016
 C2874 C 0.73256 0.57217 0.21587
 C2875 C 0.73822 0.56067 0.22154
 C2876 C 0.73228 0.55376 0.23200
 C2877 C 0.72023 0.55911 0.23632
 C2878 C 0.71452 0.57055 0.23059
 H2879 H 0.71358 0.63083 0.18538
 H2880 H 0.70390 0.65033 0.17572
 H2881 H 0.66757 0.64173 0.19507
 H2882 H 0.67753 0.62252 0.20506
 H2883 H 0.73769 0.57686 0.20793
 H2884 H 0.74734 0.55712 0.21757
 H2885 H 0.71499 0.55431 0.24413
 H2886 H 0.70528 0.57395 0.23439
 C2887 C 0.55351 0.12503 0.69633
 C2888 C 0.54920 0.11971 0.68431
 C2889 C 0.55493 0.10830 0.67853
 C2890 C 0.56548 0.10116 0.68432
 C2891 C 0.56971 0.10669 0.69646
 C2892 C 0.56396 0.11812 0.70218
 C2893 C 0.54724 0.13751 0.70261
 N2894 N 0.55181 0.14278 0.71402
 N2895 N 0.54642 0.15353 0.71942
 C2896 C 0.53604 0.15984 0.71384
 N2897 N 0.53147 0.15457 0.70243
 N2898 N 0.53686 0.14383 0.69703
 C2899 C 0.52978 0.17232 0.72012
 C2900 C 0.51875 0.17874 0.71465
 C2901 C 0.51308 0.19022 0.72034
 C2902 C 0.51801 0.19610 0.73190
 C2903 C 0.52904 0.18969 0.73735
 C2904 C 0.53470 0.17819 0.73169
 H2905 H 0.54129 0.12445 0.67917
 H2906 H 0.55095 0.10542 0.66924
 H2907 H 0.57745 0.10224 0.70199
 H2908 H 0.56780 0.12154 0.71140
 H2909 H 0.51445 0.17490 0.70581
 H2910 H 0.50480 0.19461 0.71548
 H2911 H 0.53349 0.19366 0.74607
 H2912 H 0.54311 0.17391 0.73642
 C2913 C 1.05342 0.12496 0.19702
 C2914 C 1.04641 0.11641 0.18867
 C2915 C 1.05213 0.10495 0.18300
 C2916 C 1.06535 0.10121 0.18518
 C2917 C 1.07235 0.10986 0.19353
 C2918 C 1.06658 0.12127 0.19927
 C2919 C 1.04715 0.13745 0.20324
 N2920 N 1.05360 0.14486 0.21231
 N2921 N 1.04819 0.15560 0.21770
 C2922 C 1.03593 0.15980 0.21439
 N2923 N 1.02949 0.15240 0.20530
 N2924 N 1.03488 0.14163 0.19996
 C2925 C 1.02968 0.17229 0.22062
 C2926 C 1.01760 0.17760 0.21632
 C2927 C 1.01198 0.18915 0.22191
 C2928 C 1.01796 0.19610 0.23232
 C2929 C 1.02999 0.19075 0.23667
 C2930 C 1.03567 0.17928 0.23100
 H2931 H 1.03629 0.11852 0.18652
 H2932 H 1.04592 0.09892 0.17699
 H2933 H 1.08252 0.10803 0.19559
 H2934 H 1.07261 0.12731 0.20548
 H2935 H 1.01245 0.17287 0.20841
 H2936 H 1.00287 0.19270 0.21794
 H2937 H 1.03525 0.19558 0.24444
 H2938 H 1.04491 0.17588 0.23481
 C2939 C 0.19687 0.62540 0.55292
 C2940 C 0.20387 0.61698 0.56140
 C2941 C 0.19820 0.60550 0.56709
 C2942 C 0.18504 0.60160 0.56479
 C2943 C 0.17806 0.61012 0.55629
 C2944 C 0.18377 0.62155 0.55055
 C2945 C 0.20309 0.63792 0.54668
 N2946 N 0.19662 0.64529 0.53759
 N2947 N 0.20198 0.65606 0.53220
 C2948 C 0.21421 0.66032 0.53552
 N2949 N 0.22067 0.65296 0.54462
 N2950 N 0.21533 0.64217 0.54998
 C2951 C 0.22041 0.67284 0.52928
 C2952 C 0.23253 0.67812 0.53351
 C2953 C 0.23812 0.68969 0.52791
 C2954 C 0.23207 0.69670 0.51759
 C2955 C 0.21998 0.69138 0.51332
 C2956 C 0.21434 0.67988 0.51899
 H2957 H 0.21394 0.61920 0.56366
 H2958 H 0.20440 0.59958 0.57321
 H2959 H 0.16794 0.60816 0.55412
 H2960 H 0.17775 0.62749 0.54423
 H2961 H 0.23775 0.67335 0.54135
 H2962 H 0.24728 0.69321 0.53182
 H2963 H 0.21466 0.69627 0.50562
 H2964 H 0.20507 0.67651 0.51524
 C2965 C 0.19662 0.12569 1.05358
 C2966 C 0.18350 0.12190 1.05124
 C2967 C 0.17777 0.11044 1.05692
 C2968 C 0.18477 0.10181 1.06531
 C2969 C 0.19795 0.10566 1.06757
 C2970 C 0.20363 0.11717 1.06197
 C2971 C 0.20285 0.13824 1.04742
 N2972 N 0.21505 0.14252 1.05082
 N2973 N 0.22041 0.15334 1.04553
 C2974 C 0.21400 0.16069 1.03638
 N2975 N 0.20180 0.15640 1.03296
 N2976 N 0.19643 0.14561 1.03829
 C2977 C 0.22022 0.17324 1.03020
 C2978 C 0.21431 0.18015 1.01973
 C2979 C 0.21999 0.19163 1.01407
 C2980 C 0.23195 0.19707 1.01852
 C2981 C 0.23784 0.19019 1.02904
 C2982 C 0.23221 0.17864 1.03462
 H2983 H 0.17747 0.12791 1.04500
 H2984 H 0.16763 0.10854 1.05479
 H2985 H 0.20416 0.09966 1.07362
 H2986 H 0.21372 0.11935 1.06419
 H2987 H 0.20514 0.17668 1.01582
 H2988 H 0.21484 0.19637 1.00617
 H2989 H 0.24690 0.19379 1.03308
 H2990 H 0.23730 0.17397 1.04260
 C2991 C 0.19675 0.69691 0.62473
 C2992 C 0.18822 0.70388 0.63314
 C2993 C 0.18252 0.69818 0.64460
 C2994 C 0.18483 0.68501 0.64848
 C2995 C 0.19336 0.67806 0.63995
 C2996 C 0.19912 0.68380 0.62855
 C2997 C 0.20303 0.70316 0.61225
 N2998 N 0.21218 0.69673 0.60492
 N2999 N 0.21761 0.70212 0.59420
 C3000 C 0.21428 0.71435 0.58993
 N3001 N 0.20512 0.72077 0.59725
 N3002 N 0.19972 0.71540 0.60800
 C3003 C 0.22056 0.72059 0.57745
 C3004 C 0.21631 0.73269 0.57215
 C3005 C 0.22194 0.73831 0.56062
 C3006 C 0.23234 0.73232 0.55367
 C3007 C 0.23664 0.72026 0.55901
 C3008 C 0.23093 0.71458 0.57047
 H3009 H 0.18597 0.71395 0.63093
 H3010 H 0.17638 0.70435 0.65053
 H3011 H 0.19556 0.66794 0.64190
 H3012 H 0.20547 0.67781 0.62262
 H3013 H 0.20841 0.73786 0.57688
 H3014 H 0.21800 0.74745 0.55709
 H3015 H 0.24440 0.71498 0.55417
 H3016 H 0.23471 0.70533 0.57386
 C3017 C 0.19652 0.19605 1.12407
 C3018 C 0.18820 0.20309 1.13263
 C3019 C 0.18259 0.19741 1.14414
 C3020 C 0.18480 0.18421 1.14794
 C3021 C 0.19311 0.17718 1.13928
 C3022 C 0.19878 0.18290 1.12781
 C3023 C 0.20270 0.20227 1.11152
 N3024 N 0.21164 0.19573 1.10403
 N3025 N 0.21698 0.20110 1.09324
 C3026 C 0.21377 0.21339 1.08908
 N3027 N 0.20481 0.21991 1.09656
 N3028 N 0.19950 0.21457 1.10737
 C3029 C 0.21997 0.21960 1.07654
 C3030 C 0.21585 0.23180 1.07137
 C3031 C 0.22145 0.23742 1.05982
 C3032 C 0.23168 0.23131 1.05272
 C3033 C 0.23582 0.21913 1.05791
 C3034 C 0.23014 0.21346 1.06939
 H3035 H 0.18603 0.21320 1.13049
 H3036 H 0.17660 0.20363 1.15019
 H3037 H 0.19520 0.16702 1.14115
 H3038 H 0.20497 0.17685 1.12177
 H3039 H 0.20810 0.23707 1.07623
 H3040 H 0.21766 0.24666 1.05642
 H3041 H 0.24346 0.21378 1.05297
 H3042 H 0.23381 0.20412 1.07268
 C3043 C 0.69667 0.55361 0.12518
 C3044 C 0.69910 0.56670 0.12134
 C3045 C 0.69334 0.57247 0.10995
 C3046 C 0.68477 0.56556 0.10145
 C3047 C 0.68241 0.55241 0.10534
 C3048 C 0.68810 0.54668 0.11678
 C3049 C 0.70293 0.54733 0.13765
 N3050 N 0.69958 0.53510 0.14189
 N3051 N 0.70496 0.52970 0.15264
 C3052 C 0.71415 0.53609 0.15996
 N3053 N 0.71751 0.54831 0.15571
 N3054 N 0.71210 0.55373 0.14499
 C3055 C 0.72041 0.52983 0.17244
 C3056 C 0.73078 0.53582 0.17942
 C3057 C 0.73649 0.53013 0.19088
 C3058 C 0.73218 0.51807 0.19620
 C3059 C 0.72178 0.51208 0.18925
 C3060 C 0.71615 0.51773 0.17772
 H3061 H 0.70549 0.57267 0.12727
 H3062 H 0.69558 0.58258 0.10799
 H3063 H 0.67622 0.54626 0.09942
 H3064 H 0.68580 0.53662 0.11900
 H3065 H 0.73457 0.54508 0.17604
 H3066 H 0.74425 0.53540 0.19572
 H3067 H 0.71784 0.50295 0.19278
 H3068 H 0.70824 0.51257 0.17299
 C3069 C 0.69607 1.05425 0.62592
 C3070 C 0.69839 1.06739 0.62217
 C3071 C 0.69271 1.07315 0.61073
 C3072 C 0.68433 1.06617 0.60208
 C3073 C 0.68207 1.05298 0.60588
 C3074 C 0.68768 1.04726 0.61738
 C3075 C 0.70226 1.04799 0.63844
 N3076 N 0.69894 1.03573 0.64265
 N3077 N 0.70425 1.03036 0.65344
 C3078 C 0.71334 1.03679 0.66085
 N3079 N 0.71668 1.04903 0.65663
 N3080 N 0.71133 1.05443 0.64587
 C3081 C 0.71955 1.03053 0.67336
 C3082 C 0.72991 1.03652 0.68038
 C3083 C 0.73560 1.03080 0.69183
 C3084 C 0.73129 1.01874 0.69714
 C3085 C 0.72087 1.01278 0.69018
 C3086 C 0.71526 1.01844 0.67865
 H3087 H 0.70463 1.07341 0.62820
 H3088 H 0.69485 1.08330 0.60886
 H3089 H 0.67603 1.04679 0.59985
 H3090 H 0.68547 1.03717 0.61952
 H3091 H 0.73372 1.04577 0.67701
 H3092 H 0.74340 1.03603 0.69666
 H3093 H 0.71693 1.00363 0.69368
 H3094 H 0.70736 1.01329 0.67390
 C3095 C 0.55364 0.19672 0.62527
 C3096 C 0.56225 0.20366 0.61692
 C3097 C 0.56798 0.19794 0.60550
 C3098 C 0.56561 0.18480 0.60160
 C3099 C 0.55700 0.17788 0.61006
 C3100 C 0.55121 0.18364 0.62143
 C3101 C 0.54733 0.20299 0.63771
 N3102 N 0.53815 0.19656 0.64501
 N3103 N 0.53270 0.20196 0.65572
 C3104 C 0.53603 0.21419 0.65998
 N3105 N 0.54523 0.22060 0.65270
 N3106 N 0.55065 0.21522 0.64197
 C3107 C 0.52972 0.22043 0.67243
 C3108 C 0.53394 0.23254 0.67772
 C3109 C 0.52828 0.23815 0.68924
 C3110 C 0.51789 0.23212 0.69617
 C3111 C 0.51363 0.22005 0.69084
 C3112 C 0.51936 0.21439 0.67940
 H3113 H 0.56455 0.21372 0.61916
 H3114 H 0.57421 0.20408 0.59961
 H3115 H 0.55477 0.16777 0.60808
 H3116 H 0.54479 0.17767 0.62732
 H3117 H 0.54182 0.23773 0.67300
 H3118 H 0.53218 0.24730 0.69278
 H3119 H 0.50588 0.21475 0.69568
 H3120 H 0.51561 0.20512 0.67601
 C3121 C 1.05387 0.19639 0.12543
 C3122 C 1.06234 0.20335 0.11697
 C3123 C 1.06805 0.19761 0.10553
 C3124 C 1.06578 0.18443 0.10172
 C3125 C 1.05731 0.17747 0.11030
 C3126 C 1.05154 0.18325 0.12168
 C3127 C 1.04759 0.20267 0.13789
 N3128 N 1.03850 0.19623 0.14528
 N3129 N 1.03307 0.20165 0.15599
 C3130 C 1.03634 0.21391 0.16018
 N3131 N 1.04546 0.22035 0.15281
 N3132 N 1.05085 0.21495 0.14207
 C3133 C 1.03006 0.22018 0.17265
 C3134 C 1.03425 0.23232 0.17789
 C3135 C 1.02861 0.23795 0.18941
 C3136 C 1.01826 0.23192 0.19641
 C3137 C 1.01403 0.21981 0.19112
 C3138 C 1.01974 0.21413 0.17967
 H3139 H 1.06457 0.21345 0.11912
 H3140 H 1.07416 0.20377 0.09954
 H3141 H 1.05517 0.16733 0.10842
 H3142 H 1.04524 0.17726 0.12767
 H3143 H 1.04211 0.23752 0.17313
 H3144 H 1.03249 0.24713 0.19290
 H3145 H 1.00631 0.21451 0.19600
 H3146 H 1.01601 0.20484 0.17632
 C3147 C 0.62462 0.19610 0.69630
 C3148 C 0.63310 0.20307 0.68783
 C3149 C 0.64450 0.19732 0.68207
 C3150 C 0.64826 0.18410 0.68426
 C3151 C 0.63968 0.17714 0.69271
 C3152 C 0.62833 0.18294 0.69854
 C3153 C 0.61220 0.20240 0.70264
 N3154 N 0.60481 0.19593 0.71171
 N3155 N 0.59413 0.20136 0.71720
 C3156 C 0.58998 0.21367 0.71401
 N3157 N 0.59735 0.22013 0.70492
 N3158 N 0.60806 0.21472 0.69947
 C3159 C 0.57755 0.21995 0.72036
 C3160 C 0.57235 0.23214 0.71626
 C3161 C 0.56086 0.23779 0.72195
 C3162 C 0.55385 0.23172 0.73226
 C3163 C 0.55909 0.21956 0.73641
 C3164 C 0.57050 0.21387 0.73064
 H3165 H 0.63098 0.21319 0.68567
 H3166 H 0.65049 0.20349 0.67597
 H3167 H 0.64153 0.16698 0.69480
 H3168 H 0.62234 0.17694 0.70483
 H3169 H 0.57713 0.23738 0.70843
 H3170 H 0.55741 0.24701 0.71813
 H3171 H 0.55419 0.21422 0.74410
 H3172 H 0.57381 0.20453 0.73431
 C3173 C 1.12495 0.19638 0.19648
 C3174 C 1.12870 0.18324 0.19880
 C3175 C 1.14007 0.17745 0.19302
 C3176 C 1.14864 0.18440 0.18454
 C3177 C 1.14484 0.19759 0.18227
 C3178 C 1.13341 0.20334 0.18799
 C3179 C 1.11250 0.20267 0.20277
 N3180 N 1.10832 0.21495 0.19951
 N3181 N 1.09759 0.22036 0.20492
 C3182 C 1.09023 0.21393 0.21405
 N3183 N 1.09443 0.20166 0.21732
 N3184 N 1.10513 0.19624 0.21188
 C3185 C 1.07778 0.22020 0.22035
 C3186 C 1.07077 0.21416 0.23068
 C3187 C 1.05933 0.21985 0.23642
 C3188 C 1.05404 0.23195 0.23218
 C3189 C 1.06102 0.23798 0.22182
 C3190 C 1.07253 0.23234 0.21616
 H3191 H 1.12272 0.17726 0.20511
 H3192 H 1.14195 0.16731 0.19516
 H3193 H 1.15082 0.20374 0.17615
 H3194 H 1.13126 0.21343 0.18577
 H3195 H 1.07412 0.20487 0.23441
 H3196 H 1.05448 0.21455 0.24415
 H3197 H 1.05751 0.24715 0.21793
 H3198 H 1.07728 0.23754 0.20829
 C3199 C 0.12518 0.69695 0.55306
 C3200 C 0.11669 0.68855 0.54604
 C3201 C 0.10522 0.68286 0.55174
 C3202 C 0.10142 0.68506 0.56494
 C3203 C 0.11002 0.69346 0.57194
 C3204 C 0.12143 0.69922 0.56620
 C3205 C 0.13767 0.70322 0.54681
 N3206 N 0.14508 0.71226 0.55331
 N3207 N 0.15581 0.71768 0.54793
 C3208 C 0.16001 0.71444 0.53565
 N3209 N 0.15262 0.70538 0.52917
 N3210 N 0.14186 0.70000 0.53453
 C3211 C 0.17251 0.72071 0.52943
 C3212 C 0.17776 0.71654 0.51728
 C3213 C 0.18930 0.72218 0.51168
 C3214 C 0.19631 0.73249 0.51776
 C3215 C 0.19102 0.73669 0.52988
 C3216 C 0.17955 0.73099 0.53552
 H3217 H 0.11884 0.68638 0.53593
 H3218 H 0.09923 0.67681 0.54553
 H3219 H 0.10814 0.69557 0.58209
 H3220 H 0.12743 0.70547 0.57223
 H3221 H 0.17298 0.70872 0.51205
 H3222 H 0.19280 0.71832 0.50250
 H3223 H 0.19591 0.74438 0.53522
 H3224 H 0.17620 0.73469 0.54482
 C3225 C 0.12619 0.19611 1.05377
 C3226 C 0.12237 0.18300 1.05141
 C3227 C 0.11092 0.17728 1.05710
 C3228 C 0.10233 0.18427 1.06551
 C3229 C 0.10620 0.19743 1.06782
 C3230 C 0.11771 0.20311 1.06220
 C3231 C 0.13872 0.20233 1.04758
 N3232 N 0.14302 0.21453 1.05097
 N3233 N 0.15383 0.21987 1.04565
 C3234 C 0.16115 0.21346 1.03648
 N3235 N 0.15683 0.20127 1.03307
 N3236 N 0.14606 0.19590 1.03843
 C3237 C 0.17368 0.21967 1.03027
 C3238 C 0.18057 0.21374 1.01979
 C3239 C 0.19203 0.21941 1.01410
 C3240 C 0.19748 0.23137 1.01853
 C3241 C 0.19064 0.23727 1.02905
 C3242 C 0.17909 0.23166 1.03467
 H3243 H 0.12836 0.17698 1.04514
 H3244 H 0.10900 0.16714 1.05493
 H3245 H 0.10021 0.20363 1.07389
 H3246 H 0.11990 0.21319 1.06445
 H3247 H 0.17708 0.20457 1.01589
 H3248 H 0.19675 0.21425 1.00619
 H3249 H 0.19425 0.24634 1.03308
 H3250 H 0.17444 0.23676 1.04265
 C3251 C 0.62534 0.55341 0.19666
 C3252 C 0.61688 0.56188 0.20364
 C3253 C 0.60545 0.56760 0.19791
 C3254 C 0.60164 0.56537 0.18472
 C3255 C 0.61021 0.55690 0.17775
 C3256 C 0.62158 0.55111 0.18352
 C3257 C 0.63780 0.54712 0.20293
 N3258 N 0.64516 0.53801 0.19648
 N3259 N 0.65587 0.53257 0.20189
 C3260 C 0.66008 0.53585 0.21414
 N3261 N 0.65274 0.54498 0.22059
 N3262 N 0.64200 0.55038 0.21520
 C3263 C 0.67255 0.52956 0.22040
 C3264 C 0.67782 0.53377 0.23252
 C3265 C 0.68934 0.52812 0.23814
 C3266 C 0.69630 0.51774 0.23211
 C3267 C 0.69099 0.51349 0.22003
 C3268 C 0.67953 0.51921 0.21436
 H3269 H 0.61904 0.56408 0.21374
 H3270 H 0.59948 0.57369 0.20410
 H3271 H 0.60832 0.55476 0.16761
 H3272 H 0.62756 0.54481 0.17752
 H3273 H 0.67308 0.54165 0.23771
 H3274 H 0.69287 0.53202 0.24729
 H3275 H 0.69584 0.50575 0.21472
 H3276 H 0.67616 0.51547 0.20508
 C3277 C 0.62578 1.05379 0.69612
 C3278 C 0.61719 1.04667 0.68788
 C3279 C 0.60567 1.05231 0.68223
 C3280 C 0.60190 1.06554 0.68429
 C3281 C 0.61060 1.07265 0.69251
 C3282 C 0.62206 1.06697 0.69824
 C3283 C 0.63832 1.04761 0.70235
 N3284 N 0.64577 1.05418 0.71131
 N3285 N 0.65655 1.04886 0.71670
 C3286 C 0.66076 1.03657 0.71352
 N3287 N 0.65334 1.03002 0.70454
 N3288 N 0.64252 1.03532 0.69919
 C3289 C 0.67331 1.03041 0.71977
 C3290 C 0.67860 1.01828 0.71559
 C3291 C 0.69015 1.01271 0.72123
 C3292 C 0.69714 1.01878 0.73156
 C3293 C 0.69181 1.03088 0.73578
 C3294 C 0.68033 1.03651 0.73006
 H3295 H 0.61931 1.03654 0.68583
 H3296 H 0.59960 1.04603 0.67633
 H3297 H 0.60876 1.08283 0.69449
 H3298 H 0.62813 1.07308 0.70435
 H3299 H 0.67384 1.01304 0.70776
 H3300 H 0.69366 1.00353 0.71737
 H3301 H 0.69665 1.03619 0.74351
 H3302 H 0.67695 1.04579 0.73378
 C3303 C 0.87374 0.44577 0.30417
 C3304 C 0.87761 0.43270 0.30167
 C3305 C 0.88902 0.42692 0.30739
 C3306 C 0.89751 0.43382 0.31599
 C3307 C 0.89360 0.44695 0.31842
 C3308 C 0.88214 0.45268 0.31276
 C3309 C 0.86126 0.45206 0.29795
 N3310 N 0.85701 0.46428 0.30134
 N3311 N 0.84625 0.46968 0.29600
 C3312 C 0.83891 0.46331 0.28681
 N3313 N 0.84317 0.45109 0.28341
 N3314 N 0.85391 0.44567 0.28879
 C3315 C 0.82643 0.46959 0.28057
 C3316 C 0.81943 0.46359 0.27021
 C3317 C 0.80801 0.46932 0.26449
 C3318 C 0.80273 0.48142 0.26876
 C3319 C 0.80968 0.48738 0.27918
 C3320 C 0.82117 0.48170 0.28483
 H3321 H 0.87169 0.42675 0.29526
 H3322 H 0.89100 0.41683 0.30510
 H3323 H 0.89951 0.45308 0.32463
 H3324 H 0.87990 0.46273 0.31512
 H3325 H 0.82279 0.45433 0.26643
 H3326 H 0.80318 0.46408 0.25669
 H3327 H 0.80619 0.49655 0.28309
 H3328 H 0.82592 0.48685 0.29273
 C3329 C 0.87454 0.94685 0.80383
 C3330 C 0.87828 0.93369 0.80156
 C3331 C 0.88963 0.92791 0.80739
 C3332 C 0.89819 0.93487 0.81586
 C3333 C 0.89442 0.94809 0.81805
 C3334 C 0.88301 0.95383 0.81229
 C3335 C 0.86211 0.95314 0.79750
 N3336 N 0.85792 0.96542 0.80075
 N3337 N 0.84720 0.97083 0.79532
 C3338 C 0.83985 0.96440 0.78618
 N3339 N 0.84405 0.95213 0.78292
 N3340 N 0.85474 0.94671 0.78838
 C3341 C 0.82741 0.97068 0.77986
 C3342 C 0.82044 0.96467 0.76948
 C3343 C 0.80902 0.97036 0.76373
 C3344 C 0.80369 0.98245 0.76799
 C3345 C 0.81063 0.98845 0.77839
 C3346 C 0.82213 0.98280 0.78407
 H3347 H 0.87230 0.92769 0.79526
 H3348 H 0.89151 0.91775 0.80529
 H3349 H 0.90039 0.95428 0.82413
 H3350 H 0.88088 0.96394 0.81446
 H3351 H 0.82382 0.95540 0.76573
 H3352 H 0.80419 0.96508 0.75597
 H3353 H 0.80710 0.99760 0.78230
 H3354 H 0.82685 0.98798 0.79197
 C3355 C 0.37623 0.30376 0.80382
 C3356 C 0.36786 0.29685 0.81243
 C3357 C 0.35637 0.30256 0.81805
 C3358 C 0.35242 0.31567 0.81558
 C3359 C 0.36091 0.32257 0.80698
 C3360 C 0.37234 0.31681 0.80128
 C3361 C 0.38875 0.29750 0.79764
 N3362 N 0.39601 0.30382 0.78837
 N3363 N 0.40677 0.29841 0.78302
 C3364 C 0.41114 0.28628 0.78657
 N3365 N 0.40389 0.27997 0.79586
 N3366 N 0.39310 0.28536 0.80117
 C3367 C 0.42364 0.28002 0.78037
 C3368 C 0.42908 0.26808 0.78488
 C3369 C 0.44061 0.26242 0.77928
 C3370 C 0.44741 0.26822 0.76867
 C3371 C 0.44193 0.28013 0.76413
 C3372 C 0.43048 0.28585 0.76981
 H3373 H 0.37012 0.28682 0.81481
 H3374 H 0.35047 0.29642 0.82426
 H3375 H 0.35890 0.33265 0.80466
 H3376 H 0.37824 0.32276 0.79486
 H3377 H 0.42447 0.26305 0.79293
 H3378 H 0.44425 0.25339 0.78338
 H3379 H 0.44661 0.28522 0.75616
 H3380 H 0.42697 0.29498 0.76584
 C3381 C 0.87644 0.30405 0.30392
 C3382 C 0.87250 0.30160 0.31697
 C3383 C 0.86107 0.30736 0.32266
 C3384 C 0.85263 0.31595 0.31569
 C3385 C 0.85662 0.31834 0.30258
 C3386 C 0.86811 0.31265 0.29693
 C3387 C 0.88895 0.29778 0.29773
 N3388 N 0.89335 0.30121 0.28558
 N3389 N 0.90413 0.29582 0.28026
 C3390 C 0.91132 0.28653 0.28665
 N3391 N 0.90691 0.28309 0.29879
 N3392 N 0.89616 0.28852 0.30413
 C3393 C 0.92381 0.28025 0.28046
 C3394 C 0.93062 0.26970 0.28637
 C3395 C 0.94206 0.26394 0.28070
 C3396 C 0.94755 0.26838 0.26876
 C3397 C 0.94079 0.27897 0.26289
 C3398 C 0.92929 0.28465 0.26850
 H3399 H 0.87837 0.29520 0.32297
 H3400 H 0.85905 0.30510 0.33275
 H3401 H 0.85076 0.32454 0.29639
 H3402 H 0.87041 0.31497 0.28689
 H3403 H 0.92708 0.26580 0.29552
 H3404 H 0.94671 0.25599 0.28584
 H3405 H 0.94445 0.28300 0.25384
 H3406 H 0.92470 0.29269 0.26341
 C3407 C 0.37412 0.80395 0.44594
 C3408 C 0.38247 0.79705 0.43730
 C3409 C 0.39396 0.80275 0.43169
 C3410 C 0.39794 0.81585 0.43420
 C3411 C 0.38949 0.82274 0.44284
 C3412 C 0.37805 0.81699 0.44852
 C3413 C 0.36159 0.79770 0.45212
 N3414 N 0.35438 0.80400 0.46145
 N3415 N 0.34362 0.79860 0.46680
 C3416 C 0.33919 0.78651 0.46318
 N3417 N 0.34638 0.78023 0.45383
 N3418 N 0.35718 0.78560 0.44852
 C3419 C 0.32668 0.78027 0.46938
 C3420 C 0.32113 0.76840 0.46480
 C3421 C 0.30960 0.76276 0.47040
 C3422 C 0.30289 0.76851 0.48109
 C3423 C 0.30847 0.78034 0.48571
 C3424 C 0.31992 0.78604 0.48003
 H3425 H 0.38018 0.78703 0.43489
 H3426 H 0.39984 0.79662 0.42544
 H3427 H 0.39152 0.83281 0.44519
 H3428 H 0.37216 0.82293 0.45497
 H3429 H 0.32568 0.76342 0.45667
 H3430 H 0.30587 0.75381 0.46623
 H3431 H 0.30386 0.78539 0.49376
 H3432 H 0.32352 0.79511 0.48407
 C3433 C 0.37468 0.30368 0.94612
 C3434 C 0.37839 0.31683 0.94848
 C3435 C 0.38974 0.32267 0.94270
 C3436 C 0.39832 0.31577 0.93419
 C3437 C 0.39455 0.30258 0.93190
 C3438 C 0.38315 0.29678 0.93761
 C3439 C 0.36225 0.29733 0.95241
 N3440 N 0.35806 0.28508 0.94906
 N3441 N 0.34735 0.27963 0.95447
 C3442 C 0.34003 0.28598 0.96368
 N3443 N 0.34424 0.29822 0.96704
 N3444 N 0.35491 0.30369 0.96160
 C3445 C 0.32760 0.27965 0.96998
 C3446 C 0.32069 0.28556 0.98045
 C3447 C 0.30929 0.27983 0.98619
 C3448 C 0.30392 0.26780 0.98183
 C3449 C 0.31080 0.26190 0.97133
 C3450 C 0.32229 0.26758 0.96566
 H3451 H 0.37240 0.32278 0.95482
 H3452 H 0.39159 0.33281 0.94487
 H3453 H 0.40054 0.29645 0.92575
 H3454 H 0.38103 0.28668 0.93536
 H3455 H 0.32410 0.29479 0.98428
 H3456 H 0.30451 0.28502 0.99404
 H3457 H 0.30724 0.25279 0.96734
 H3458 H 0.32696 0.26248 0.95769
 C3459 C 0.80414 0.44616 0.37387
 C3460 C 0.81259 0.45319 0.38231
 C3461 C 0.81828 0.44754 0.39380
 C3462 C 0.81605 0.43436 0.39768
 C3463 C 0.80760 0.42735 0.38914
 C3464 C 0.80184 0.43304 0.37771
 C3465 C 0.79788 0.45237 0.36136
 N3466 N 0.78873 0.44591 0.35404
 N3467 N 0.78331 0.45126 0.34329
 C3468 C 0.78665 0.46348 0.33898
 N3469 N 0.79581 0.46992 0.34628
 N3470 N 0.80119 0.46459 0.35706
 C3471 C 0.78037 0.46969 0.32648
 C3472 C 0.78469 0.48172 0.32109
 C3473 C 0.77903 0.48735 0.30958
 C3474 C 0.76854 0.48141 0.30271
 C3475 C 0.76418 0.46940 0.30813
 C3476 C 0.76992 0.46372 0.31957
 H3477 H 0.81479 0.46328 0.38010
 H3478 H 0.82435 0.45377 0.39975
 H3479 H 0.80546 0.41722 0.39109
 H3480 H 0.79555 0.42700 0.37176
 H3481 H 0.79265 0.48686 0.32576
 H3482 H 0.78300 0.49645 0.30600
 H3483 H 0.75631 0.46420 0.30339
 H3484 H 0.76609 0.45451 0.32303
 C3485 C 0.80356 0.94659 0.87455
 C3486 C 0.81205 0.95358 0.88299
 C3487 C 0.81778 0.94787 0.89443
 C3488 C 0.81555 0.93469 0.89826
 C3489 C 0.80707 0.92771 0.88971
 C3490 C 0.80127 0.93346 0.87833
 C3491 C 0.79724 0.95285 0.86209
 N3492 N 0.78815 0.94637 0.85472
 N3493 N 0.78269 0.95176 0.84401
 C3494 C 0.78592 0.96403 0.83980
 N3495 N 0.79502 0.97050 0.84715
 N3496 N 0.80045 0.96513 0.85789
 C3497 C 0.77959 0.97027 0.82733
 C3498 C 0.78374 0.98243 0.82210
 C3499 C 0.77807 0.98805 0.81058
 C3500 C 0.76774 0.98199 0.80358
 C3501 C 0.76355 0.96986 0.80886
 C3502 C 0.76929 0.96419 0.82031
 H3503 H 0.81425 0.96368 0.88082
 H3504 H 0.82390 0.95405 0.90038
 H3505 H 0.80495 0.91756 0.89161
 H3506 H 0.79496 0.92745 0.87237
 H3507 H 0.79157 0.98766 0.82686
 H3508 H 0.78192 0.99724 0.80709
 H3509 H 0.75585 0.96453 0.80399
 H3510 H 0.76560 0.95488 0.82365
 C3511 C 0.30383 0.80442 0.37591
 C3512 C 0.31207 0.79732 0.36733
 C3513 C 0.31774 0.80297 0.35584
 C3514 C 0.31567 0.81620 0.35208
 C3515 C 0.30743 0.82329 0.36076
 C3516 C 0.30169 0.81760 0.37221
 C3517 C 0.29760 0.79823 0.38844
 N3518 N 0.28868 0.80480 0.39593
 N3519 N 0.28329 0.79946 0.40670
 C3520 C 0.28645 0.78715 0.41085
 N3521 N 0.29539 0.78059 0.40338
 N3522 N 0.30074 0.78591 0.39258
 C3523 C 0.28022 0.78095 0.42338
 C3524 C 0.28435 0.76877 0.42856
 C3525 C 0.27872 0.76315 0.44010
 C3526 C 0.26846 0.76925 0.44716
 C3527 C 0.26431 0.78141 0.44196
 C3528 C 0.27001 0.78709 0.43049
 H3529 H 0.31413 0.78718 0.36945
 H3530 H 0.32366 0.79670 0.34978
 H3531 H 0.30546 0.83348 0.35892
 H3532 H 0.29557 0.82370 0.37827
 H3533 H 0.29212 0.76350 0.42373
 H3534 H 0.28253 0.75392 0.44352
 H3535 H 0.25665 0.78675 0.44688
 H3536 H 0.26635 0.79642 0.42719
 C3537 C 0.30391 0.30374 0.87555
 C3538 C 0.30165 0.31689 0.87184
 C3539 C 0.30746 0.32267 0.86048
 C3540 C 0.31593 0.31571 0.85192
 C3541 C 0.31813 0.30250 0.85569
 C3542 C 0.31238 0.29676 0.86709
 C3543 C 0.29758 0.29744 0.88797
 N3544 N 0.30074 0.28512 0.89209
 N3545 N 0.29530 0.27970 0.90279
 C3546 C 0.28623 0.28617 0.91019
 N3547 N 0.28306 0.29849 0.90606
 N3548 N 0.28853 0.30392 0.89538
 C3549 C 0.27990 0.27989 0.92262
 C3550 C 0.26967 0.28601 0.92970
 C3551 C 0.26392 0.28031 0.94112
 C3552 C 0.26803 0.26811 0.94630
 C3553 C 0.27828 0.26201 0.93924
 C3554 C 0.28397 0.26766 0.92775
 H3555 H 0.29535 0.32289 0.87782
 H3556 H 0.30535 0.33283 0.85861
 H3557 H 0.32422 0.29633 0.84970
 H3558 H 0.31455 0.28665 0.86922
 H3559 H 0.26604 0.29537 0.92643
 H3560 H 0.25627 0.28567 0.94606
 H3561 H 0.28207 0.25276 0.94266
 H3562 H 0.29175 0.26240 0.92293
 C3563 C 0.44631 0.30416 0.87382
 C3564 C 0.43796 0.29714 0.88236
 C3565 C 0.43232 0.30283 0.89385
 C3566 C 0.43452 0.31603 0.89764
 C3567 C 0.44287 0.32305 0.88899
 C3568 C 0.44858 0.31731 0.87755
 C3569 C 0.45252 0.29792 0.86130
 N3570 N 0.46155 0.30440 0.85385
 N3571 N 0.46692 0.29901 0.84310
 C3572 C 0.46365 0.28674 0.83891
 N3573 N 0.45460 0.28027 0.84633
 N3574 N 0.44927 0.28564 0.85712
 C3575 C 0.46987 0.28049 0.82640
 C3576 C 0.46564 0.26836 0.82116
 C3577 C 0.47126 0.26270 0.80964
 C3578 C 0.48163 0.26870 0.80264
 C3579 C 0.48588 0.28082 0.80789
 C3580 C 0.48018 0.28653 0.81934
 H3581 H 0.43580 0.28703 0.88022
 H3582 H 0.42632 0.29661 0.89988
 H3583 H 0.44496 0.33321 0.89086
 H3584 H 0.45478 0.32335 0.87152
 H3585 H 0.45779 0.26317 0.82595
 H3586 H 0.46738 0.25352 0.80618
 H3587 H 0.49362 0.28608 0.80302
 H3588 H 0.48393 0.29581 0.82267
 C3589 C 0.94645 0.30426 0.37388
 C3590 C 0.95343 0.31273 0.38233
 C3591 C 0.94774 0.31839 0.39382
 C3592 C 0.93457 0.31610 0.39768
 C3593 C 0.92760 0.30762 0.38912
 C3594 C 0.93334 0.30189 0.37770
 C3595 C 0.95269 0.29802 0.36138
 N3596 N 0.94631 0.28879 0.35411
 N3597 N 0.95170 0.28339 0.34337
 C3598 C 0.96386 0.28685 0.33902
 N3599 N 0.97023 0.29610 0.34627
 N3600 N 0.96487 0.30146 0.35705
 C3601 C 0.97010 0.28059 0.32653
 C3602 C 0.98203 0.28506 0.32104
 C3603 C 0.98767 0.27941 0.30953
 C3604 C 0.98185 0.26877 0.30279
 C3605 C 0.96995 0.26426 0.30831
 C3606 C 0.96425 0.27000 0.31974
 H3607 H 0.96351 0.31498 0.38014
 H3608 H 0.95394 0.32448 0.39978
 H3609 H 0.91748 0.30544 0.39105
 H3610 H 0.92734 0.29558 0.37173
 H3611 H 0.98707 0.29314 0.32561
 H3612 H 0.99669 0.28349 0.30585
 H3613 H 0.96485 0.25627 0.30368
 H3614 H 0.95513 0.26604 0.32329
 C3615 C 0.44600 0.37367 0.80388
 C3616 C 0.45294 0.38203 0.81248
 C3617 C 0.44724 0.39350 0.81817
 C3618 C 0.43411 0.39744 0.81578
 C3619 C 0.42719 0.38897 0.80717
 C3620 C 0.43294 0.37757 0.80141
 C3621 C 0.45226 0.36118 0.79763
 N3622 N 0.44591 0.35392 0.78837
 N3623 N 0.45131 0.34318 0.78298
 C3624 C 0.46347 0.33883 0.78646
 N3625 N 0.46981 0.34607 0.79574
 N3626 N 0.46443 0.35684 0.80110
 C3627 C 0.46973 0.32634 0.78020
 C3628 C 0.48171 0.32093 0.78463
 C3629 C 0.48738 0.30943 0.77898
 C3630 C 0.48155 0.30262 0.76839
 C3631 C 0.46960 0.30807 0.76393
 C3632 C 0.46387 0.31950 0.76966
 H3633 H 0.46299 0.37978 0.81481
 H3634 H 0.45341 0.39937 0.82438
 H3635 H 0.41709 0.39097 0.80491
 H3636 H 0.42697 0.37167 0.79500
 H3637 H 0.48677 0.32554 0.79267
 H3638 H 0.49644 0.30581 0.78303
 H3639 H 0.46448 0.30338 0.75598
 H3640 H 0.45471 0.32299 0.76574
 C3641 C 0.94589 0.37369 0.30384
 C3642 C 0.95288 0.38211 0.31234
 C3643 C 0.94719 0.39357 0.31805
 C3644 C 0.93402 0.39744 0.31578
 C3645 C 0.92704 0.38892 0.30728
 C3646 C 0.93278 0.37752 0.30150
 C3647 C 0.95213 0.36120 0.29758
 N3648 N 0.94566 0.35381 0.28850
 N3649 N 0.95104 0.34307 0.28309
 C3650 C 0.96330 0.33885 0.28636
 N3651 N 0.96976 0.34623 0.29546
 N3652 N 0.96440 0.35699 0.30084
 C3653 C 0.96955 0.32637 0.28009
 C3654 C 0.98172 0.32117 0.28426
 C3655 C 0.98737 0.30967 0.27860
 C3656 C 0.98134 0.30265 0.26827
 C3657 C 0.96919 0.30787 0.26408
 C3658 C 0.96348 0.31930 0.26981
 H3659 H 0.96296 0.37991 0.31457
 H3660 H 0.95339 0.39949 0.32418
 H3661 H 0.91691 0.39087 0.30512
 H3662 H 0.92676 0.37158 0.29518
 H3663 H 0.98693 0.32596 0.29209
 H3664 H 0.99659 0.30623 0.28244
 H3665 H 0.96389 0.30298 0.25636
 H3666 H 0.95417 0.32262 0.26611
 C3667 C 0.30458 0.87413 0.44568
 C3668 C 0.31774 0.87787 0.44791
 C3669 C 0.32349 0.88928 0.44214
 C3670 C 0.31648 0.89790 0.43376
 C3671 C 0.30326 0.89412 0.43160
 C3672 C 0.29756 0.88265 0.43730
 C3673 C 0.29833 0.86164 0.45195
 N3674 N 0.28606 0.85743 0.44868
 N3675 N 0.28069 0.84666 0.45406
 C3676 C 0.28713 0.83931 0.46319
 N3677 N 0.29938 0.84354 0.46648
 N3678 N 0.30478 0.85427 0.46106
 C3679 C 0.28087 0.82682 0.46947
 C3680 C 0.28682 0.81988 0.47990
 C3681 C 0.28109 0.80847 0.48566
 C3682 C 0.26903 0.80312 0.48134
 C3683 C 0.26312 0.81002 0.47086
 C3684 C 0.26879 0.82151 0.46518
 H3685 H 0.32378 0.87186 0.45414
 H3686 H 0.33365 0.89115 0.44420
 H3687 H 0.29704 0.90013 0.42558
 H3688 H 0.28744 0.88052 0.43516
 H3689 H 0.29606 0.82329 0.48372
 H3690 H 0.28627 0.80371 0.49353
 H3691 H 0.25398 0.80650 0.46691
 H3692 H 0.26366 0.82620 0.45724
 C3693 C 0.30402 0.37449 0.94655
 C3694 C 0.31720 0.37818 0.94873
 C3695 C 0.32298 0.38953 0.94288
 C3696 C 0.31598 0.39813 0.93448
 C3697 C 0.30274 0.39440 0.93237
 C3698 C 0.29701 0.38299 0.93815
 C3699 C 0.29774 0.36206 0.95290
 N3700 N 0.28543 0.35792 0.94974
 N3701 N 0.28003 0.34720 0.95518
 C3702 C 0.28651 0.33982 0.96426
 N3703 N 0.29881 0.34398 0.96744
 N3704 N 0.30423 0.35467 0.96196
 C3705 C 0.28024 0.32739 0.97061
 C3706 C 0.28630 0.32037 0.98093
 C3707 C 0.28059 0.30895 0.98670
 C3708 C 0.26846 0.30369 0.98251
 C3709 C 0.26242 0.31068 0.97216
 C3710 C 0.26807 0.32217 0.96647
 H3711 H 0.32324 0.37217 0.95496
 H3712 H 0.33316 0.39136 0.94490
 H3713 H 0.29653 0.40040 0.92633
 H3714 H 0.28688 0.38089 0.93605
 H3715 H 0.29561 0.32371 0.98462
 H3716 H 0.28590 0.30409 0.99442
 H3717 H 0.25323 0.30719 0.96830
 H3718 H 0.26286 0.32692 0.95861
 C3719 C 0.80429 0.37613 0.30360
 C3720 C 0.81301 0.36784 0.29672
 C3721 C 0.81866 0.35636 0.30241
 C3722 C 0.81611 0.35232 0.31548
 C3723 C 0.80739 0.36072 0.32235
 C3724 C 0.80167 0.37214 0.31661
 C3725 C 0.79808 0.38864 0.29736
 N3726 N 0.78873 0.39582 0.30366
 N3727 N 0.78335 0.40658 0.29827
 C3728 C 0.78693 0.41102 0.28618
 N3729 N 0.79630 0.40385 0.27989
 N3730 N 0.80165 0.39307 0.28525
 C3731 C 0.78069 0.42352 0.27994
 C3732 C 0.78520 0.42902 0.26803
 C3733 C 0.77955 0.44054 0.26239
 C3734 C 0.76889 0.44727 0.26818
 C3735 C 0.76436 0.44173 0.28007
 C3736 C 0.77008 0.43029 0.28577
 H3737 H 0.81546 0.37017 0.28672
 H3738 H 0.82497 0.35053 0.29630
 H3739 H 0.80500 0.35864 0.33241
 H3740 H 0.79517 0.37798 0.32254
 H3741 H 0.79329 0.42446 0.26301
 H3742 H 0.78365 0.44422 0.25339
 H3743 H 0.75635 0.44636 0.28515
 H3744 H 0.76610 0.42673 0.29487
   
