data_POSCAR
  _audit_creation_date              2014-09-24
  _audit_creation_method            'ToBaCCo'
  _symmetry_space_group_name_H-M    'P1'
  _symmetry_Int_Tables_number       1
  _symmetry_cell_setting            triclinic
  loop_
  _symmetry_equiv_pos_as_xyz
 x,y,z
_cell_length_a 69.0307
_cell_length_b 69.0813
_cell_length_c 68.8343
_cell_angle_alpha 92.909600
_cell_angle_beta 93.137500
_cell_angle_gamma 92.843200
loop_
  _atom_site_label
  _atom_site_type_symbol
  _atom_site_fract_x
  _atom_site_fract_y
  _atom_site_fract_z
C1 C 0.72891 0.66028 0.97686
 H2 H 0.74310 0.66055 0.97091
 C3 C 0.71437 0.67133 0.96884
 H4 H 0.71738 0.68024 0.95674
 C5 C 0.70732 0.64770 0.99933
 H6 H 0.70444 0.63811 1.01085
 C7 C 0.69240 0.65852 0.99174
 H8 H 0.67816 0.65736 0.99759
 N9 N 0.72516 0.64877 0.99183
 C10 C 0.78119 0.63694 1.01992
 H11 H 0.77942 0.62129 1.01988
 C12 C 0.79823 0.64644 1.02810
 H13 H 0.80966 0.63810 1.03438
 C14 C 0.76850 0.66693 1.01167
 H15 H 0.75682 0.67484 1.00535
 C16 C 0.78536 0.67703 1.01971
 H17 H 0.78670 0.69271 1.01945
 Zn18 Zn 0.74480 0.63252 1.00054
 N19 N 0.76689 0.64721 1.01166
 C20 C 0.77026 0.61883 0.97267
 N21 N 0.75174 0.61741 0.97850
 C22 C 0.73758 0.60646 0.96787
 C23 C 0.74189 0.59627 0.95070
 C24 C 0.77517 0.60889 0.95564
 C25 C 0.73180 0.62603 1.03724
 C26 C 0.72527 0.61557 1.05262
 C27 C 0.72706 0.58594 1.03265
 C28 C 0.73359 0.59701 1.01760
 N29 N 0.73562 0.61670 1.02010
 H30 H 0.78120 0.62801 0.98094
 H31 H 0.72289 0.60591 0.97261
 H32 H 0.73052 0.58772 0.94222
 H33 H 0.78991 0.61026 0.95102
 H34 H 0.73383 0.64167 1.03890
 H35 H 0.72219 0.62324 1.06615
 H36 H 0.72541 0.57028 1.03050
 H37 H 0.73709 0.58986 1.00402
 C38 C 0.80039 0.66665 1.02788
 C39 C 0.69592 0.67034 0.97628
 C40 C 0.72281 0.59533 1.05032
 C41 C 0.76085 0.59759 0.94451
 C42 C 0.73564 0.36042 0.50692
 H43 H 0.74979 0.36130 0.51458
 C44 C 0.72048 0.34903 0.51382
 H45 H 0.72295 0.34104 0.52679
 C46 C 0.71490 0.37024 0.48102
 H47 H 0.71265 0.37885 0.46851
 C48 C 0.69934 0.35904 0.48744
 H49 H 0.68521 0.35891 0.47975
 N50 N 0.73264 0.37067 0.49076
 C51 C 0.79002 0.38189 0.46898
 H52 H 0.79003 0.39750 0.46824
 C53 C 0.80596 0.37194 0.46304
 H54 H 0.81835 0.37989 0.45773
 C55 C 0.77377 0.35240 0.47660
 H56 H 0.76110 0.34482 0.48164
 C57 C 0.78944 0.34188 0.47078
 H58 H 0.78886 0.32623 0.47150
 Zn59 Zn 0.75354 0.38692 0.48335
 N60 N 0.77445 0.37208 0.47582
 C61 C 0.77977 0.40361 0.51349
 N62 N 0.76139 0.40373 0.50527
 C63 C 0.74776 0.41464 0.51345
 C64 C 0.75244 0.42603 0.53059
 C65 C 0.78504 0.41480 0.53060
 C66 C 0.74107 0.39060 0.44463
 C67 C 0.73527 0.39994 0.42793
 C68 C 0.73955 0.43066 0.44649
 C69 C 0.74529 0.42074 0.46287
 N70 N 0.74571 0.40103 0.46169
 H71 H 0.79024 0.39447 0.50715
 H72 H 0.73315 0.41415 0.50684
 H73 H 0.74144 0.43442 0.53718
 H74 H 0.79960 0.41436 0.53722
 H75 H 0.74180 0.37498 0.44406
 H76 H 0.73141 0.39150 0.41446
 H77 H 0.73908 0.44633 0.44753
 H78 H 0.74942 0.42879 0.47644
 C79 C 0.80569 0.35177 0.46401
 C80 C 0.70216 0.34840 0.50402
 C81 C 0.73443 0.42014 0.42890
 C82 C 0.77123 0.42600 0.53929
 C83 C 0.23645 -0.13848 0.00637
 H84 H 0.25055 -0.13755 0.01412
 C85 C 0.22126 -0.14991 0.01317
 H86 H 0.22367 -0.15788 0.02617
 C87 C 0.21584 -0.12876 -0.01969
 H88 H 0.21366 -0.12020 -0.03224
 C89 C 0.20027 -0.14001 -0.01337
 H90 H 0.18619 -0.14020 -0.02118
 N91 N 0.23353 -0.12828 -0.00984
 C92 C 0.29098 -0.11726 -0.03153
 H93 H 0.29103 -0.10166 -0.03235
 C94 C 0.30692 -0.12728 -0.03739
 H95 H 0.31932 -0.11939 -0.04273
 C96 C 0.27467 -0.14667 -0.02376
 H97 H 0.26198 -0.15419 -0.01869
 C98 C 0.29032 -0.15726 -0.02950
 H99 H 0.28971 -0.17289 -0.02869
 Zn100 Zn 0.25449 -0.11208 -0.01722
 N101 N 0.27539 -0.12700 -0.02466
 C102 C 0.28069 -0.09532 0.01290
 N103 N 0.26231 -0.09523 0.00467
 C104 C 0.24868 -0.08431 0.01281
 C105 C 0.25335 -0.07287 0.02993
 C106 C 0.28595 -0.08410 0.02998
 C107 C 0.24215 -0.10846 -0.05599
 C108 C 0.23638 -0.09916 -0.07272
 C109 C 0.24067 -0.06838 -0.05420
 C110 C 0.24637 -0.07830 -0.03780
 N111 N 0.24676 -0.09800 -0.03893
 H112 H 0.29117 -0.10447 0.00658
 H113 H 0.23407 -0.08481 0.00619
 H114 H 0.24234 -0.06447 0.03649
 H115 H 0.30052 -0.08452 0.03660
 H116 H 0.24287 -0.12409 -0.05652
 H117 H 0.23256 -0.10771 -0.08615
 H118 H 0.24023 -0.05270 -0.05308
 H119 H 0.25047 -0.07024 -0.02422
 C120 C 0.30660 -0.14744 -0.03630
 C121 C 0.20301 -0.15062 0.00324
 C122 C 0.23555 -0.07893 -0.07181
 C123 C 0.27213 -0.07288 0.03863
 C124 C 0.22942 0.16136 0.47631
 H125 H 0.24370 0.16192 0.47056
 C126 C 0.21482 0.17231 0.46824
 H127 H 0.21786 0.18143 0.45632
 C128 C 0.20768 0.14816 0.49830
 H129 H 0.20478 0.13837 0.50965
 C130 C 0.19269 0.15886 0.49066
 H131 H 0.17837 0.15741 0.49630
 N132 N 0.22564 0.14960 0.49108
 C133 C 0.28151 0.13817 0.51973
 H134 H 0.27985 0.12251 0.51959
 C135 C 0.29840 0.14776 0.52814
 H136 H 0.30983 0.13947 0.53449
 C137 C 0.26868 0.16811 0.51149
 H138 H 0.25701 0.17596 0.50507
 C139 C 0.28540 0.17829 0.51976
 H140 H 0.28664 0.19398 0.51958
 Zn141 Zn 0.24540 0.13353 0.49985
 N142 N 0.26721 0.14837 0.51136
 C143 C 0.27141 0.12054 0.47225
 N144 N 0.25281 0.11875 0.47779
 C145 C 0.23893 0.10772 0.46687
 C146 C 0.24361 0.09787 0.44963
 C147 C 0.27669 0.11094 0.45517
 C148 C 0.23205 0.12654 0.53629
 C149 C 0.22552 0.11586 0.55152
 C150 C 0.22794 0.08644 0.53143
 C151 C 0.23445 0.09771 0.51651
 N152 N 0.23618 0.11740 0.51915
 H153 H 0.28213 0.12977 0.48076
 H154 H 0.22417 0.10687 0.47139
 H155 H 0.23247 0.08927 0.44090
 H156 H 0.29148 0.11263 0.45077
 H157 H 0.23383 0.14219 0.53807
 H158 H 0.22218 0.12329 0.56508
 H159 H 0.22652 0.07079 0.52926
 H160 H 0.23819 0.09071 0.50293
 C161 C 0.30043 0.16798 0.52803
 C162 C 0.19626 0.17094 0.47542
 C163 C 0.22341 0.09564 0.54907
 C164 C 0.26266 0.09961 0.44370
 C165 C 0.15937 0.47537 0.22754
 H166 H 0.15951 0.46949 0.24181
 C167 C 0.17062 0.46737 0.21321
 H168 H 0.17955 0.45536 0.21646
 C169 C 0.14690 0.49762 0.20552
 H170 H 0.13726 0.50904 0.20238
 C171 C 0.15792 0.49005 0.19079
 H172 H 0.15687 0.49582 0.17645
 N173 N 0.14781 0.49022 0.22348
 C174 C 0.13506 0.51821 0.27921
 H175 H 0.11940 0.51809 0.27713
 C176 C 0.14430 0.52648 0.29639
 H177 H 0.13575 0.53274 0.30762
 C178 C 0.16533 0.51013 0.26713
 H179 H 0.17346 0.50386 0.25563
 C180 C 0.17518 0.51827 0.28414
 H181 H 0.19086 0.51813 0.28579
 Zn182 Zn 0.13124 0.49884 0.24279
 N183 N 0.14559 0.51000 0.26514
 C184 C 0.11732 0.47106 0.26821
 N185 N 0.11611 0.47683 0.24958
 C186 C 0.10543 0.46616 0.23525
 C187 C 0.09533 0.44896 0.23945
 C188 C 0.10746 0.45401 0.27302
 C189 C 0.12477 0.53535 0.22942
 C190 C 0.11431 0.55063 0.22259
 C191 C 0.08471 0.53065 0.22393
 C192 C 0.09575 0.51570 0.23076
 N193 N 0.11544 0.51825 0.23317
 H194 H 0.12630 0.47937 0.27930
 H195 H 0.10505 0.47086 0.22048
 H196 H 0.08701 0.44044 0.22794
 H197 H 0.10868 0.44943 0.28784
 H198 H 0.14041 0.53706 0.23173
 H199 H 0.12190 0.56414 0.21953
 H200 H 0.06906 0.52853 0.22194
 H201 H 0.08858 0.50214 0.23419
 C202 C 0.16451 0.52640 0.29894
 C203 C 0.16977 0.47471 0.19464
 C204 C 0.09411 0.54825 0.21977
 C205 C 0.09646 0.44281 0.25851
 C206 C -0.13937 0.00803 0.23662
 H207 H -0.13816 0.01536 0.25093
 C208 C -0.15106 0.01528 0.22175
 H209 H -0.15893 0.02821 0.22465
 C210 C -0.13010 -0.01742 0.21519
 H211 H -0.12160 -0.02989 0.21257
 C212 C -0.14160 -0.01066 0.19991
 H213 H -0.14202 -0.01809 0.18562
 N214 N -0.12927 -0.00809 0.23314
 C215 C -0.11724 -0.03126 0.29005
 H216 H -0.10165 -0.03215 0.28984
 C217 C -0.12698 -0.03745 0.30604
 H218 H -0.11889 -0.04311 0.31824
 C219 C -0.14691 -0.02298 0.27432
 H220 H -0.15465 -0.01758 0.26183
 C221 C -0.15722 -0.02904 0.29003
 H222 H -0.17286 -0.02814 0.28968
 Zn223 Zn -0.11271 -0.01612 0.25370
 N224 N -0.12724 -0.02398 0.27472
 C225 C -0.09526 0.01316 0.28036
 N226 N -0.09557 0.00540 0.26176
 C227 C -0.08485 0.01377 0.24811
 C228 C -0.07322 0.03065 0.25298
 C229 C -0.08382 0.02999 0.28583
 C230 C -0.10961 -0.05448 0.24031
 C231 C -0.10055 -0.07107 0.23393
 C232 C -0.06959 -0.05298 0.23817
 C233 C -0.07924 -0.03669 0.24448
 N234 N -0.09894 -0.03767 0.24518
 H235 H -0.10426 0.00667 0.29087
 H236 H -0.08568 0.00753 0.23333
 H237 H -0.06497 0.03740 0.24196
 H238 H -0.08392 0.03625 0.30058
 H239 H -0.12521 -0.05491 0.24127
 H240 H -0.10919 -0.08432 0.22988
 H241 H -0.05394 -0.05207 0.23747
 H242 H -0.07099 -0.02332 0.24880
 C243 C -0.14714 -0.03627 0.30605
 C244 C -0.15213 0.00587 0.20321
 C245 C -0.08038 -0.07028 0.23278
 C246 C -0.07281 0.03887 0.27199
 C247 C 0.35889 0.50786 0.73621
 H248 H 0.36003 0.51543 0.75040
 C249 C 0.34733 0.51488 0.72111
 H250 H 0.33946 0.52787 0.72368
 C251 C 0.36829 0.48208 0.71527
 H252 H 0.37682 0.46957 0.71291
 C253 C 0.35691 0.48862 0.69977
 H254 H 0.35657 0.48102 0.68559
 N255 N 0.36901 0.49169 0.73308
 C256 C 0.38104 0.46971 0.79052
 H257 H 0.39664 0.46886 0.79035
 C258 C 0.37131 0.46377 0.80661
 H259 H 0.37941 0.45835 0.81893
 C260 C 0.35135 0.47760 0.77456
 H261 H 0.34360 0.48274 0.76194
 C262 C 0.34104 0.47179 0.79038
 H263 H 0.32539 0.47261 0.78997
 Zn264 Zn 0.38556 0.48412 0.75386
 N265 N 0.37102 0.47667 0.77502
 C266 C 0.40296 0.51394 0.77995
 N267 N 0.40262 0.50580 0.76150
 C268 C 0.41325 0.51391 0.74763
 C269 C 0.42479 0.53091 0.75211
 C270 C 0.41431 0.53090 0.78503
 C271 C 0.38884 0.44556 0.74122
 C272 C 0.39800 0.42891 0.73520
 C273 C 0.42888 0.44716 0.73928
 C274 C 0.41913 0.46351 0.74522
 N275 N 0.39942 0.46247 0.74583
 H276 H 0.39404 0.50763 0.79063
 H277 H 0.41241 0.50736 0.73297
 H278 H 0.43295 0.53746 0.74091
 H279 H 0.41424 0.53747 0.79966
 H280 H 0.37322 0.44510 0.74210
 H281 H 0.38943 0.41557 0.73134
 H282 H 0.44454 0.44810 0.73864
 H283 H 0.42730 0.47696 0.74934
 C284 C 0.35114 0.46488 0.80655
 C285 C 0.34640 0.50520 0.70272
 C286 C 0.41818 0.42974 0.73415
 C287 C 0.42521 0.53954 0.77096
 C288 C 0.65914 0.97678 0.72784
 H289 H 0.65976 0.97054 0.74195
 C290 C 0.67002 0.96925 0.71295
 H291 H 0.67914 0.95723 0.71560
 C292 C 0.64581 0.99946 0.70680
 H293 H 0.63597 1.01085 0.70425
 C294 C 0.65643 0.99237 0.69154
 H295 H 0.65487 0.99847 0.67738
 N296 N 0.64733 0.99161 0.72453
 C297 C 0.63563 1.01809 0.78127
 H298 H 0.61995 1.01784 0.77955
 C299 C 0.64516 1.02610 0.79842
 H300 H 0.63676 1.03202 0.80995
 C301 C 0.66569 1.01062 0.76830
 H302 H 0.67360 1.00469 0.75646
 C303 C 0.67583 1.01851 0.78526
 H304 H 0.69155 1.01851 0.78647
 Zn305 Zn 0.63117 0.99959 0.74448
 N306 N 0.64592 1.01032 0.76677
 C307 C 0.61794 0.97107 0.76947
 N308 N 0.61635 0.97729 0.75102
 C309 C 0.60541 0.96692 0.73665
 C310 C 0.59540 0.94961 0.74065
 C311 C 0.60818 0.95388 0.77407
 C312 C 0.62418 1.03642 0.73229
 C313 C 0.61352 1.05173 0.72589
 C314 C 0.58411 1.03143 0.72709
 C315 C 0.59536 1.01643 0.73350
 N316 N 0.61505 1.01913 0.73573
 H317 H 0.62711 0.97914 0.78057
 H318 H 0.60473 0.97198 0.72202
 H319 H 0.58685 0.94135 0.72912
 H320 H 0.60968 0.94896 0.78875
 H321 H 0.63982 1.03822 0.73445
 H322 H 0.62096 1.06538 0.72303
 H323 H 0.56847 1.02918 0.72519
 H324 H 0.58835 1.00272 0.73669
 C325 C 0.66543 1.02622 0.80049
 C326 C 0.66852 0.97704 0.69460
 C327 C 0.59332 1.04920 0.72319
 C328 C 0.59689 0.94302 0.75953
 C329 C 0.00740 0.23470 -0.13888
 H330 H 0.01472 0.24896 -0.13756
 C331 C 0.01481 0.21992 -0.15043
 H332 H 0.02785 0.22279 -0.15811
 C333 C -0.01818 0.21330 -0.13000
 H334 H -0.03077 0.21065 -0.12169
 C335 C -0.01124 0.19812 -0.14138
 H336 H -0.01861 0.18387 -0.14193
 N337 N -0.00887 0.23120 -0.12903
 C338 C -0.03236 0.28775 -0.11719
 H339 H -0.03357 0.28731 -0.10161
 C340 C -0.03838 0.30383 -0.12693
 H341 H -0.04423 0.31586 -0.11885
 C342 C -0.02342 0.27254 -0.14682
 H343 H -0.01781 0.26022 -0.15454
 C344 C -0.02928 0.28836 -0.15713
 H345 H -0.02804 0.28826 -0.17275
 Zn346 Zn -0.01710 0.25159 -0.11254
 N347 N -0.02482 0.27264 -0.12716
 C348 C 0.01195 0.27810 -0.09455
 N349 N 0.00426 0.25954 -0.09503
 C350 C 0.01263 0.24588 -0.08424
 C351 C 0.02943 0.25070 -0.07237
 C352 C 0.02869 0.28353 -0.08287
 C353 C -0.05554 0.23824 -0.11000
 C354 C -0.07226 0.23190 -0.10116
 C355 C -0.05440 0.23598 -0.06986
 C356 C -0.03800 0.24225 -0.07933
 N357 N -0.03881 0.24302 -0.09907
 H358 H 0.00546 0.28863 -0.10360
 H359 H 0.00645 0.23114 -0.08520
 H360 H 0.03620 0.23969 -0.06408
 H361 H 0.03489 0.29825 -0.08284
 H362 H -0.05582 0.23926 -0.12564
 H363 H -0.08543 0.22794 -0.11008
 H364 H -0.05355 0.23525 -0.05414
 H365 H -0.02468 0.24650 -0.07088
 C366 C -0.03674 0.30417 -0.14706
 C367 C 0.00543 0.20146 -0.15164
 C368 C -0.07168 0.23068 -0.08090
 C369 C 0.03758 0.26968 -0.07179
 C370 C 0.47731 0.22785 0.16051
 H371 H 0.47141 0.24207 0.16095
 C372 C 0.46947 0.21331 0.17159
 H373 H 0.45756 0.21635 0.18071
 C374 C 0.49943 0.20616 0.14741
 H375 H 0.51072 0.20325 0.13759
 C376 C 0.49201 0.19124 0.15825
 H377 H 0.49778 0.17696 0.15689
 N378 N 0.49202 0.22405 0.14871
 C379 C 0.51982 0.27987 0.13652
 H380 H 0.51953 0.27804 0.12080
 C381 C 0.52810 0.29688 0.14593
 H382 H 0.53421 0.30823 0.13746
 C383 C 0.51207 0.26734 0.16677
 H384 H 0.50589 0.25575 0.17481
 C385 C 0.52023 0.28419 0.17679
 H386 H 0.52021 0.28560 0.19253
 Zn387 Zn 0.50037 0.24365 0.13233
 N388 N 0.51175 0.26566 0.14696
 C389 C 0.47239 0.26932 0.11919
 N390 N 0.47811 0.25076 0.11756
 C391 C 0.46724 0.23672 0.10672
 C392 C 0.44988 0.24118 0.09689
 C393 C 0.45520 0.27438 0.10962
 C394 C 0.53678 0.23048 0.12515
 C395 C 0.55187 0.22384 0.11436
 C396 C 0.53137 0.22568 0.08497
 C397 C 0.51661 0.23232 0.09634
 N398 N 0.51951 0.23438 0.11608
 H399 H 0.48087 0.28016 0.12829
 H400 H 0.47190 0.22199 0.10600
 H401 H 0.44120 0.22991 0.08844
 H402 H 0.45067 0.28915 0.11118
 H403 H 0.53877 0.23251 0.14084
 H404 H 0.56552 0.22065 0.12174
 H405 H 0.52897 0.22395 0.06928
 H406 H 0.50293 0.23586 0.08939
 C407 C 0.52818 0.29913 0.16622
 C408 C 0.47681 0.19481 0.17034
 C409 C 0.54913 0.22136 0.09410
 C410 C 0.44379 0.26018 0.09846
 C411 C 0.97616 0.72829 0.66217
 H412 H 0.97042 0.74259 0.66290
 C413 C 0.96839 0.71371 0.67325
 H414 H 0.95671 0.71677 0.68264
 C415 C 0.99778 0.70650 0.64838
 H416 H 1.00885 0.70357 0.63830
 C417 C 0.99044 0.69153 0.65920
 H418 H 0.99602 0.67719 0.65755
 N419 N 0.99059 0.72447 0.65004
 C420 C 1.01864 0.78018 0.63792
 H421 H 1.01805 0.77849 0.62219
 C422 C 1.02726 0.79704 0.64735
 H423 H 1.03332 0.80841 0.63886
 C424 C 1.01133 0.76746 0.66821
 H425 H 1.00520 0.75585 0.67625
 C426 C 1.01983 0.78415 0.67824
 H427 H 1.02012 0.78543 0.69400
 Zn428 Zn 0.99884 0.74417 0.63372
 N429 N 1.01063 0.76595 0.64838
 C430 C 0.97090 0.77021 0.62131
 N431 N 0.97646 0.75160 0.61938
 C432 C 0.96536 0.73774 0.60853
 C433 C 0.94794 0.74243 0.59899
 C434 C 0.95364 0.77549 0.61202
 C435 C 1.03498 0.73075 0.62587
 C436 C 1.04987 0.72412 0.61480
 C437 C 1.02905 0.72642 0.58570
 C438 C 1.01448 0.73304 0.59735
 N439 N 1.01765 0.73487 0.61708
 H440 H 0.97957 0.78091 0.63041
 H441 H 0.96990 0.72297 0.60758
 H442 H 0.93908 0.73131 0.59052
 H443 H 0.94926 0.79029 0.61379
 H444 H 1.03717 0.73259 0.64155
 H445 H 1.06357 0.72077 0.62196
 H446 H 1.02645 0.72489 0.57003
 H447 H 1.00075 0.73675 0.59063
 C448 C 1.02773 0.79912 0.66767
 C449 C 0.97552 0.69513 0.67164
 C450 C 1.04688 0.72190 0.59455
 C451 C 0.94201 0.76148 0.60085
 C452 C 0.50685 0.73499 0.36082
 H453 H 0.51438 0.74916 0.36199
 C454 C 0.51407 0.71995 0.34946
 H455 H 0.52716 0.72253 0.34178
 C456 C 0.48096 0.71410 0.36992
 H457 H 0.46833 0.71173 0.37824
 C458 C 0.48770 0.69866 0.35874
 H459 H 0.48013 0.68452 0.35834
 N460 N 0.49052 0.73186 0.37069
 C461 C 0.46776 0.78887 0.38188
 H462 H 0.46657 0.78864 0.39747
 C463 C 0.46189 0.80488 0.37194
 H464 H 0.45617 0.81706 0.37993
 C465 C 0.47651 0.77317 0.35242
 H466 H 0.48198 0.76070 0.34484
 C467 C 0.47078 0.78891 0.34189
 H468 H 0.47202 0.78854 0.32625
 Zn469 Zn 0.48258 0.75256 0.38695
 N470 N 0.47512 0.77355 0.37209
 C471 C 0.51193 0.77891 0.40469
 N472 N 0.50404 0.76043 0.40437
 C473 C 0.51228 0.74675 0.41523
 C474 C 0.52921 0.75145 0.42696
 C475 C 0.52880 0.78420 0.41623
 C476 C 0.44397 0.73984 0.38963
 C477 C 0.42720 0.73378 0.39853
 C478 C 0.44511 0.73772 0.42977
 C479 C 0.46159 0.74372 0.42027
 N480 N 0.46077 0.74443 0.40051
 H481 H 0.50552 0.78945 0.39561
 H482 H 0.50593 0.73208 0.41440
 H483 H 0.53590 0.74040 0.43527
 H484 H 0.53518 0.79884 0.41612
 H485 H 0.44369 0.74079 0.37398
 H486 H 0.41394 0.72995 0.38972
 H487 H 0.44588 0.73700 0.44547
 H488 H 0.47497 0.74780 0.42869
 C489 C 0.46348 0.80494 0.35177
 C490 C 0.50443 0.70161 0.34847
 C491 C 0.42780 0.73264 0.41876
 C492 C 0.53760 0.77032 0.42733
 C493 C 0.38048 -0.01828 0.26341
 C494 C 0.36788 -0.02318 0.24462
 C495 C 0.35756 -0.00806 0.23855
 C496 C 0.36066 0.01056 0.25180
 C497 C 0.39324 -0.00035 0.25910
 C498 C 0.38279 0.01472 0.25302
 C499 C 0.36647 -0.01096 0.27827
 C500 C 0.35613 0.00412 0.27220
 H501 H 0.36794 -0.03698 0.23632
 H502 H 0.35214 0.02283 0.24688
 H503 H 0.40902 0.00020 0.26024
 H504 H 0.36539 -0.01665 0.29263
 C505 C 0.10790 1.03429 0.75236
 C506 C 0.11890 1.03965 0.73450
 C507 C 0.13043 1.02552 0.72806
 C508 C 0.13002 1.00731 0.74002
 C509 C 0.09672 1.01497 0.74632
 C510 C 0.10838 1.00088 0.73989
 C511 C 0.12358 1.02915 0.76758
 C512 C 0.13510 1.01500 0.76112
 H513 H 0.11729 1.05316 0.72728
 H514 H 0.13951 0.99586 0.73474
 H515 H 0.08116 1.01252 0.74745
 H516 H 0.12453 1.03508 0.78255
 C517 C 0.60676 0.53483 0.25146
 C518 C 0.61789 0.54020 0.23369
 C519 C 0.62937 0.52601 0.22725
 C520 C 0.62875 0.50775 0.23911
 C521 C 0.59547 0.51560 0.24528
 C522 C 0.60706 0.50145 0.23884
 C523 C 0.62232 0.52951 0.26673
 C524 C 0.63377 0.51531 0.26026
 H525 H 0.61646 0.55378 0.22656
 H526 H 0.63818 0.49625 0.23382
 H527 H 0.57989 0.51325 0.24632
 H528 H 0.62325 0.53540 0.28172
 C529 C 0.87930 0.48174 0.76422
 C530 C 0.86684 0.47673 0.74537
 C531 C 0.85649 0.49177 0.73916
 C532 C 0.85944 0.51045 0.75234
 C533 C 0.89204 0.49969 0.75992
 C534 C 0.88157 0.51469 0.75370
 C535 C 0.86516 0.48907 0.77895
 C536 C 0.85480 0.50408 0.77273
 H537 H 0.86696 0.46288 0.73715
 H538 H 0.85092 0.52267 0.74731
 H539 H 0.90782 0.50031 0.76119
 H540 H 0.86400 0.48342 0.79331
 C541 C 0.26148 0.37709 -0.01856
 C542 C 0.24292 0.36431 -0.02349
 C543 C 0.23722 0.35376 -0.00839
 C544 C 0.25058 0.35684 0.01024
 C545 C 0.25716 0.38959 -0.00039
 C546 C 0.25145 0.37892 0.01465
 C547 C 0.27664 0.36321 -0.01146
 C548 C 0.27092 0.35265 0.00360
 H549 H 0.23454 0.36431 -0.03733
 H550 H 0.24595 0.34815 0.02249
 H551 H 0.25807 0.40536 0.00036
 H552 H 0.29091 0.36238 -0.01728
 C553 C 0.75254 0.10639 1.03497
 C554 C 0.73506 0.11800 1.04019
 C555 C 0.72879 0.12937 1.02576
 C556 C 0.74054 0.12820 1.00743
 C557 C 0.74614 0.09493 1.01580
 C558 C 0.73988 0.10643 1.00142
 C559 C 0.76800 0.12150 1.02942
 C560 C 0.76171 0.13286 1.01499
 H561 H 0.72793 0.11691 1.05381
 H562 H 0.73540 0.13755 0.99574
 H563 H 0.74688 0.07930 1.01368
 H564 H 0.78296 0.12219 1.03533
 C565 C 0.25014 0.60766 0.53482
 C566 C 0.23260 0.61922 0.53996
 C567 C 0.22638 0.63060 0.52552
 C568 C 0.23823 0.62948 0.50726
 C569 C 0.24386 0.59622 0.51562
 C570 C 0.23765 0.60772 0.50123
 C571 C 0.26560 0.62281 0.52937
 C572 C 0.25936 0.63418 0.51493
 H573 H 0.22541 0.61809 0.55354
 H574 H 0.23313 0.63884 0.49556
 H575 H 0.24462 0.58059 0.51348
 H576 H 0.28053 0.62354 0.53538
 C577 C 0.76145 0.87832 0.48155
 C578 C 0.74277 0.86569 0.47674
 C579 C 0.73670 0.85573 0.49209
 C580 C 0.74984 0.85919 0.51083
 C581 C 0.75706 0.89145 0.49925
 C582 C 0.75098 0.88136 0.51455
 C583 C 0.77629 0.86445 0.48931
 C584 C 0.77022 0.85448 0.50463
 H585 H 0.73452 0.86546 0.46281
 H586 H 0.74493 0.85097 0.52329
 H587 H 0.75810 0.90720 0.49947
 H588 H 0.79062 0.86320 0.48372
 C589 C -0.01784 0.26323 0.37860
 C590 C -0.02295 0.24458 0.36600
 C591 C -0.00797 0.23846 0.35557
 C592 C 0.01076 0.25151 0.35859
 C593 C 0.00019 0.25879 0.39133
 C594 C 0.01513 0.25266 0.38078
 C595 C -0.01057 0.27803 0.36449
 C596 C 0.00439 0.27188 0.35405
 H597 H -0.03686 0.23648 0.36598
 H598 H 0.02293 0.24653 0.35001
 H599 H 0.00092 0.25997 0.40715
 H600 H -0.01626 0.29234 0.36335
 C601 C 1.03623 0.75343 0.10562
 C602 C 1.04158 0.73584 0.11707
 C603 C 1.02734 0.72956 0.12855
 C604 C 1.00906 0.74140 0.12763
 C605 C 1.01700 0.74719 0.09422
 C606 C 1.00281 0.74092 0.10583
 C607 C 1.03087 0.76879 0.12097
 C608 C 1.01663 0.76249 0.13244
 H609 H 1.05514 0.72866 0.11579
 H610 H 0.99753 0.73624 0.13708
 H611 H 1.01469 0.74807 0.07856
 H612 H 1.03675 0.78372 0.12173
 C613 C 0.53577 0.25366 0.60800
 C614 C 0.54108 0.23608 0.61948
 C615 C 0.52686 0.22988 0.63102
 C616 C 0.50863 0.24179 0.63012
 C617 C 0.51649 0.24747 0.59667
 C618 C 0.50232 0.24129 0.60833
 C619 C 0.53051 0.26909 0.62334
 C620 C 0.51628 0.26286 0.63486
 H621 H 0.55464 0.22887 0.61822
 H622 H 0.49711 0.23670 0.63961
 H623 H 0.51414 0.24833 0.58101
 H624 H 0.53645 0.28399 0.62406
 C625 C 0.48261 0.76302 0.87850
 C626 C 0.47743 0.74431 0.86600
 C627 C 0.49236 0.73814 0.85551
 C628 C 0.51108 0.75120 0.85836
 C629 C 0.50071 0.75863 0.89114
 C630 C 0.51559 0.75245 0.88053
 C631 C 0.48980 0.77775 0.86427
 C632 C 0.50468 0.77155 0.85377
 H633 H 0.46356 0.73617 0.86616
 H634 H 0.52320 0.74619 0.84972
 H635 H 0.50153 0.75984 0.90697
 H636 H 0.48413 0.79207 0.86314
 C637 C 0.45784 -0.17951 0.34190
 C638 C 0.45273 -0.16560 0.33346
 C639 C 0.44645 -0.14884 0.32377
 C640 C 0.42946 -0.15017 0.31163
 C641 C 0.42283 -0.13367 0.30297
 C642 C 0.43311 -0.11560 0.30639
 C643 C 0.45033 -0.11449 0.31840
 C644 C 0.45694 -0.13101 0.32703
 C645 C 0.42549 -0.09790 0.29801
 C646 C 0.42609 -0.08030 0.30931
 C647 C 0.41799 -0.06389 0.30183
 C648 C 0.40925 -0.06482 0.28296
 C649 C 0.40889 -0.08216 0.27147
 C650 C 0.41697 -0.09860 0.27893
 C651 C 0.39978 -0.04831 0.27579
 C652 C 0.39136 -0.03464 0.27006
 H653 H 0.42117 -0.16388 0.30909
 H654 H 0.40938 -0.13496 0.29402
 H655 H 0.45868 -0.10084 0.32112
 H656 H 0.47012 -0.12982 0.33641
 H657 H 0.43229 -0.07937 0.32414
 H658 H 0.41823 -0.05058 0.31089
 H659 H 0.40213 -0.08304 0.25685
 H660 H 0.41650 -0.11186 0.26980
 C661 C 0.95720 0.32070 0.84274
 C662 C 0.95201 0.33469 0.83448
 C663 C 0.94562 0.35151 0.82498
 C664 C 0.92898 0.35004 0.81235
 C665 C 0.92226 0.36654 0.80377
 C666 C 0.93211 0.38476 0.80776
 C667 C 0.94897 0.38603 0.82030
 C668 C 0.95567 0.36951 0.82885
 C669 C 0.92443 0.40242 0.79938
 C670 C 0.92435 0.41986 0.81086
 C671 C 0.91622 0.43623 0.80330
 C672 C 0.90813 0.43540 0.78418
 C673 C 0.90843 0.41824 0.77252
 C674 C 0.91654 0.40185 0.78005
 C675 C 0.89864 0.45185 0.77688
 C676 C 0.89020 0.46546 0.77103
 H677 H 0.92103 0.33620 0.80934
 H678 H 0.90908 0.36513 0.79442
 H679 H 0.95699 0.39980 0.82347
 H680 H 0.96858 0.37080 0.83862
 H681 H 0.93006 0.42070 0.82586
 H682 H 0.91594 0.44941 0.81249
 H683 H 0.90216 0.41744 0.75771
 H684 H 0.91660 0.38871 0.77078
 C685 C 0.01330 1.18580 0.83726
 C686 C 0.02010 1.17260 0.82825
 C687 C 0.02847 1.15678 0.81784
 C688 C 0.01937 1.13817 0.81706
 C689 C 0.02794 1.12262 0.80768
 C690 C 0.04576 1.12549 0.79896
 C691 C 0.05465 1.14431 0.79961
 C692 C 0.04606 1.15983 0.80900
 C693 C 0.05535 1.10887 0.78976
 C694 C 0.06493 1.11093 0.77240
 C695 C 0.07472 1.09552 0.76426
 C696 C 0.07504 1.07786 0.77334
 C697 C 0.06531 1.07557 0.79045
 C698 C 0.05551 1.09094 0.79861
 C699 C 0.08605 1.06240 0.76561
 C700 C 0.09568 1.04961 0.75946
 H701 H 0.00574 1.13565 0.82385
 H702 H 0.02063 1.10836 0.80723
 H703 H 0.06849 1.14695 0.79329
 H704 H 0.05328 1.17416 0.80961
 H705 H 0.06487 1.12446 0.76512
 H706 H 0.08222 1.09746 0.75102
 H707 H 0.06558 1.06199 0.79767
 H708 H 0.04851 1.08898 0.81212
 C709 C 0.51209 0.68570 0.33756
 C710 C 0.51874 0.67231 0.32871
 C711 C 0.52695 0.65629 0.31846
 C712 C 0.53422 0.65862 0.30010
 C713 C 0.54290 0.64326 0.29052
 C714 C 0.54443 0.62535 0.29921
 C715 C 0.53684 0.62309 0.31757
 C716 C 0.52818 0.63846 0.32712
 C717 C 0.55440 0.60927 0.28948
 C718 C 0.54719 0.58991 0.29015
 C719 C 0.55712 0.57474 0.28173
 C720 C 0.57434 0.57872 0.27252
 C721 C 0.58147 0.59794 0.27154
 C722 C 0.57158 0.61312 0.27993
 C723 C 0.58514 0.56311 0.26476
 C724 C 0.59464 0.55023 0.25857
 H725 H 0.53334 0.67236 0.29326
 H726 H 0.54839 0.64538 0.27630
 H727 H 0.53803 0.60959 0.32478
 H728 H 0.52267 0.63653 0.34138
 H729 H 0.53389 0.58649 0.29718
 H730 H 0.55147 0.55991 0.28258
 H731 H 0.59486 0.60117 0.26454
 H732 H 0.57766 0.62782 0.27941
 C733 C 0.53604 0.31697 0.17594
 C734 C 0.54253 0.33225 0.18344
 C735 C 0.55015 0.35082 0.19169
 C736 C 0.53747 0.36498 0.19734
 C737 C 0.54478 0.38346 0.20415
 C738 C 0.56492 0.38805 0.20535
 C739 C 0.57757 0.37361 0.19993
 C740 C 0.57022 0.35513 0.19313
 C741 C 0.57263 0.40797 0.21168
 C742 C 0.58795 0.41686 0.20212
 C743 C 0.59489 0.43578 0.20773
 C744 C 0.58665 0.44608 0.22295
 C745 C 0.57150 0.43734 0.23264
 C746 C 0.56452 0.41841 0.22705
 C747 C 0.59372 0.46563 0.22856
 C748 C 0.59972 0.48198 0.23322
 H749 H 0.52190 0.36184 0.19615
 H750 H 0.53466 0.39432 0.20797
 H751 H 0.59315 0.37661 0.20093
 H752 H 0.58017 0.34429 0.18876
 H753 H 0.59431 0.40932 0.19006
 H754 H 0.60661 0.44243 0.20010
 H755 H 0.56506 0.44515 0.24450
 H756 H 0.55287 0.41189 0.23484
 C757 C 0.03591 0.81682 0.67741
 C758 C 0.04263 0.83200 0.68493
 C759 C 0.05050 0.85047 0.69320
 C760 C 0.07061 0.85450 0.69474
 C761 C 0.07819 0.87289 0.70156
 C762 C 0.06572 0.88753 0.70690
 C763 C 0.04554 0.88323 0.70560
 C764 C 0.03800 0.86483 0.69877
 C765 C 0.07367 0.90737 0.71324
 C766 C 0.06558 0.91797 0.72851
 C767 C 0.07271 0.93687 0.73404
 C768 C 0.08800 0.94541 0.72438
 C769 C 0.09624 0.93494 0.70928
 C770 C 0.08915 0.91605 0.70374
 C771 C 0.09513 0.96497 0.72985
 C772 C 0.10112 0.98135 0.73440
 H773 H 0.08042 0.84350 0.69043
 H774 H 0.09380 0.87568 0.70264
 H775 H 0.03555 0.89424 0.70934
 H776 H 0.02240 0.86192 0.69749
 H777 H 0.05382 0.91162 0.73626
 H778 H 0.06626 0.94483 0.74580
 H779 H 0.10806 0.94143 0.70168
 H780 H 0.09551 0.90838 0.69175
 C781 C 0.96693 0.67950 0.68186
 C782 C 0.95963 0.66613 0.68994
 C783 C 0.95080 0.64986 0.69904
 C784 C 0.93070 0.64594 0.69673
 C785 C 0.92219 0.62958 0.70469
 C786 C 0.93370 0.61688 0.71505
 C787 C 0.95387 0.62109 0.71751
 C788 C 0.96235 0.63747 0.70954
 C789 C 0.92476 0.59904 0.72277
 C790 C 0.93407 0.58140 0.72134
 C791 C 0.92539 0.56447 0.72804
 C792 C 0.90732 0.56493 0.73627
 C793 C 0.89801 0.58243 0.73792
 C794 C 0.90665 0.59938 0.73122
 C795 C 0.89821 0.54736 0.74267
 C796 C 0.89061 0.53253 0.74780
 H797 H 0.92164 0.65537 0.68852
 H798 H 0.90667 0.62661 0.70231
 H799 H 0.96309 0.61174 0.72562
 H800 H 0.97793 0.64035 0.71141
 H801 H 0.94786 0.58059 0.71466
 H802 H 0.93270 0.55099 0.72662
 H803 H 0.88402 0.58295 0.74430
 H804 H 0.89923 0.61277 0.73273
 C805 C 0.46816 0.17922 0.18057
 C806 C 0.46081 0.16587 0.18866
 C807 C 0.45195 0.14964 0.19778
 C808 C 0.43192 0.14544 0.19504
 C809 C 0.42339 0.12912 0.20306
 C810 C 0.43483 0.11673 0.21391
 C811 C 0.45492 0.12122 0.21680
 C812 C 0.46342 0.13756 0.20877
 C813 C 0.42589 0.09895 0.22173
 C814 C 0.43544 0.08142 0.22083
 C815 C 0.42679 0.06452 0.22762
 C816 C 0.40851 0.06490 0.23542
 C817 C 0.39895 0.08229 0.23654
 C818 C 0.40757 0.09921 0.22974
 C819 C 0.39942 0.04735 0.24189
 C820 C 0.39184 0.03253 0.24708
 H821 H 0.42292 0.15462 0.18645
 H822 H 0.40794 0.12593 0.20034
 H823 H 0.46407 0.11212 0.22529
 H824 H 0.47894 0.14067 0.21098
 H825 H 0.44941 0.08066 0.21449
 H826 H 0.43428 0.05112 0.22661
 H827 H 0.38480 0.08275 0.24258
 H828 H 0.39996 0.11252 0.23084
 C829 C 0.34092 0.45873 -0.17699
 C830 C 0.33269 0.45341 -0.16306
 C831 C 0.32326 0.44682 -0.14629
 C832 C 0.30326 0.44211 -0.14740
 C833 C 0.29431 0.43502 -0.13126
 C834 C 0.30528 0.43255 -0.11380
 C835 C 0.32534 0.43755 -0.11278
 C836 C 0.33424 0.44462 -0.12893
 C837 C 0.29606 0.42418 -0.09690
 C838 C 0.30148 0.43135 -0.07777
 C839 C 0.29365 0.42266 -0.06184
 C840 C 0.28029 0.40674 -0.06482
 C841 C 0.27451 0.39975 -0.08379
 C842 C 0.28231 0.40842 -0.09974
 C843 C 0.27329 0.39692 -0.04845
 C844 C 0.26777 0.38823 -0.03487
 H845 H 0.29462 0.44378 -0.16077
 H846 H 0.27882 0.43150 -0.13242
 H847 H 0.33423 0.43554 -0.09967
 H848 H 0.34975 0.44814 -0.12794
 H849 H 0.31184 0.44361 -0.07513
 H850 H 0.29824 0.42817 -0.04720
 H851 H 0.26426 0.38736 -0.08625
 H852 H 0.27803 0.40240 -0.11426
 C853 C 0.84263 0.95742 0.32244
 C854 C 0.83436 0.95201 0.33632
 C855 C 0.82487 0.94537 0.35303
 C856 C 0.83568 0.94370 0.37060
 C857 C 0.82669 0.93672 0.38673
 C858 C 0.80672 0.93129 0.38551
 C859 C 0.79592 0.93320 0.36782
 C860 C 0.80496 0.94020 0.35169
 C861 C 0.79739 0.92316 0.40246
 C862 C 0.78390 0.90717 0.39980
 C863 C 0.77590 0.89885 0.41584
 C864 C 0.78123 0.90642 0.43473
 C865 C 0.79436 0.92254 0.43751
 C866 C 0.80238 0.93088 0.42149
 C867 C 0.77392 0.89708 0.45124
 C868 C 0.76812 0.88885 0.46498
 H869 H 0.85112 0.94758 0.37176
 H870 H 0.83545 0.93514 0.40003
 H871 H 0.78050 0.92935 0.36649
 H872 H 0.79645 0.94147 0.33815
 H873 H 0.77996 0.90073 0.38537
 H874 H 0.76584 0.88630 0.41354
 H875 H 0.79859 0.92851 0.45208
 H876 H 0.81253 0.94333 0.42399
 C877 C 0.83723 0.01316 1.18829
 C878 C 0.82809 0.01981 1.17500
 C879 C 0.81757 0.02801 1.15906
 C880 C 0.80907 0.04583 1.16188
 C881 C 0.79964 0.05428 1.14620
 C882 C 0.79862 0.04501 1.12746
 C883 C 0.80698 0.02696 1.12484
 C884 C 0.81640 0.01854 1.14054
 C885 C 0.78944 0.05446 1.11064
 C886 C 0.79808 0.05408 1.09259
 C887 C 0.78998 0.06377 1.07702
 C888 C 0.77314 0.07393 1.07925
 C889 C 0.76425 0.07415 1.09705
 C890 C 0.77233 0.06447 1.11265
 C891 C 0.76551 0.08483 1.06357
 C892 C 0.75947 0.09434 1.05057
 H893 H 0.80999 0.05334 1.17613
 H894 H 0.79359 0.06830 1.14865
 H895 H 0.80623 0.01937 1.11064
 H896 H 0.82294 0.00473 1.13820
 H897 H 0.81139 0.04674 1.09066
 H898 H 0.79705 0.06361 1.06334
 H899 H 0.75122 0.08199 1.09894
 H900 H 0.76521 0.06483 1.12629
 C901 C 0.33535 0.51273 0.68673
 C902 C 0.32641 0.51930 0.67328
 C903 C 0.31609 0.52747 0.65718
 C904 C 0.29829 0.53579 0.65981
 C905 C 0.28872 0.54451 0.64437
 C906 C 0.29687 0.54502 0.62609
 C907 C 0.31465 0.53636 0.62353
 C908 C 0.32418 0.52766 0.63899
 C909 C 0.28725 0.55511 0.60995
 C910 C 0.28697 0.54735 0.59062
 C911 C 0.27869 0.55737 0.57536
 C912 C 0.27059 0.57524 0.57921
 C913 C 0.27055 0.58294 0.59840
 C914 C 0.27880 0.57295 0.61368
 C915 C 0.26302 0.58609 0.56347
 C916 C 0.25702 0.59559 0.55044
 H917 H 0.29190 0.53572 0.67384
 H918 H 0.27495 0.55084 0.64673
 H919 H 0.32144 0.53676 0.60974
 H920 H 0.33801 0.52135 0.63682
 H921 H 0.29315 0.53355 0.58731
 H922 H 0.27881 0.55128 0.56054
 H923 H 0.26442 0.59682 0.60153
 H924 H 0.27903 0.57945 0.62834
 C925 C 0.17407 0.53435 0.31689
 C926 C 0.18147 0.54097 0.33223
 C927 C 0.18964 0.54880 0.35083
 C928 C 0.19530 0.53631 0.36523
 C929 C 0.20214 0.54385 0.38371
 C930 C 0.20335 0.56402 0.38805
 C931 C 0.19789 0.57647 0.37337
 C932 C 0.19107 0.56889 0.35489
 C933 C 0.20979 0.57199 0.40793
 C934 C 0.20033 0.58749 0.41665
 C935 C 0.20607 0.59473 0.43553
 C936 C 0.22133 0.58659 0.44595
 C937 C 0.23091 0.57124 0.43738
 C938 C 0.22519 0.56397 0.41850
 C939 C 0.22709 0.59395 0.46545
 C940 C 0.23188 0.60018 0.48177
 H941 H 0.19412 0.52072 0.36229
 H942 H 0.20598 0.53388 0.39476
 H943 H 0.19889 0.59206 0.37617
 H944 H 0.18669 0.57869 0.34386
 H945 H 0.18825 0.59380 0.40902
 H946 H 0.19853 0.60658 0.44205
 H947 H 0.24279 0.56487 0.44529
 H948 H 0.23290 0.55218 0.41210
 C949 C 0.67479 0.03356 0.81741
 C950 C 0.68249 0.04002 0.83268
 C951 C 0.69098 0.04767 0.85122
 C952 C 0.69513 0.03512 0.86604
 C953 C 0.70218 0.04259 0.88448
 C954 C 0.70511 0.06275 0.88835
 C955 C 0.70118 0.07524 0.87325
 C956 C 0.69414 0.06773 0.85481
 C957 C 0.71171 0.07073 0.90819
 C958 C 0.70349 0.08731 0.91631
 C959 C 0.70931 0.09453 0.93518
 C960 C 0.72341 0.08531 0.94618
 C961 C 0.73177 0.06888 0.93820
 C962 C 0.72597 0.06162 0.91934
 C963 C 0.72922 0.09266 0.96567
 C964 C 0.73406 0.09888 0.98198
 H965 H 0.69260 0.01958 0.86346
 H966 H 0.70482 0.03262 0.89585
 H967 H 0.70352 0.09080 0.87569
 H968 H 0.69093 0.07758 0.84345
 H969 H 0.69228 0.09448 0.90823
 H970 H 0.70271 0.10723 0.94123
 H971 H 0.74276 0.06167 0.94658
 H972 H 0.73273 0.04897 0.91342
 C973 C 0.67841 0.96869 0.67859
 C974 C 0.68612 0.96165 0.66480
 C975 C 0.69466 0.95322 0.64796
 C976 C 0.71211 0.94382 0.64991
 C977 C 0.72005 0.93527 0.63349
 C978 C 0.71061 0.93603 0.61491
 C979 C 0.69313 0.94560 0.61313
 C980 C 0.68523 0.95412 0.62954
 C981 C 0.71875 0.92667 0.59747
 C982 C 0.71816 0.93575 0.57961
 C983 C 0.72520 0.92665 0.56303
 C984 C 0.73293 0.90836 0.56404
 C985 C 0.73379 0.89928 0.58176
 C986 C 0.72677 0.90837 0.59838
 C987 C 0.73958 0.89878 0.54677
 C988 C 0.74490 0.89082 0.53216
 H989 H 0.71954 0.94305 0.66411
 H990 H 0.73363 0.92819 0.63531
 H991 H 0.68536 0.94619 0.59909
 H992 H 0.67166 0.96127 0.62787
 H993 H 0.71231 0.94994 0.57849
 H994 H 0.72449 0.93382 0.54939
 H995 H 0.73969 0.88509 0.58269
 H996 H 0.72721 0.90090 0.61184
 C997 C 0.18017 0.46591 0.17923
 C998 C 0.18837 0.45845 0.16600
 C999 C 0.19761 0.44947 0.14986
 C1000 C 0.20207 0.46025 0.13388
 C1001 C 0.21003 0.45131 0.11770
 C1002 C 0.21359 0.43141 0.11728
 C1003 C 0.20932 0.42076 0.13355
 C1004 C 0.20137 0.42974 0.14972
 C1005 C 0.22117 0.42172 0.09971
 C1006 C 0.21366 0.40317 0.09283
 C1007 C 0.22025 0.39434 0.07588
 C1008 C 0.23444 0.40390 0.06558
 C1009 C 0.24217 0.42226 0.07240
 C1010 C 0.23559 0.43113 0.08935
 C1011 C 0.24070 0.39506 0.04777
 C1012 C 0.24571 0.38770 0.03273
 H1013 H 0.19909 0.47550 0.13378
 H1014 H 0.21290 0.45985 0.10531
 H1015 H 0.21211 0.40549 0.13377
 H1016 H 0.19795 0.42125 0.16201
 H1017 H 0.20236 0.39567 0.10030
 H1018 H 0.21411 0.38016 0.07068
 H1019 H 0.25319 0.42978 0.06456
 H1020 H 0.24183 0.44531 0.09439
 C1021 C -0.17797 0.34134 0.45792
 C1022 C -0.16414 0.33292 0.45268
 C1023 C -0.14748 0.32327 0.44618
 C1024 C -0.12945 0.32654 0.45644
 C1025 C -0.11303 0.31797 0.44958
 C1026 C -0.11445 0.30601 0.43234
 C1027 C -0.13272 0.30256 0.42232
 C1028 C -0.14910 0.31116 0.42919
 C1029 C -0.09687 0.29773 0.42445
 C1030 C -0.09764 0.27870 0.41600
 C1031 C -0.08131 0.27130 0.40770
 C1032 C -0.06404 0.28280 0.40774
 C1033 C -0.06304 0.30163 0.41638
 C1034 C -0.07933 0.30904 0.42470
 C1035 C -0.04764 0.27566 0.39812
 C1036 C -0.03407 0.26992 0.38959
 H1037 H -0.12803 0.33589 0.46962
 H1038 H -0.09923 0.32071 0.45774
 H1039 H -0.13424 0.29364 0.40887
 H1040 H -0.16298 0.30861 0.42109
 H1041 H -0.11086 0.26956 0.41579
 H1042 H -0.08225 0.25672 0.40102
 H1043 H -0.04978 0.31070 0.41637
 H1044 H -0.07836 0.32383 0.43084
 C1045 C 0.32293 0.84205 0.95770
 C1046 C 0.33675 0.83357 0.95254
 C1047 C 0.35341 0.82383 0.94616
 C1048 C 0.35163 0.81097 0.92972
 C1049 C 0.36800 0.80227 0.92292
 C1050 C 0.38641 0.80638 0.93248
 C1051 C 0.38799 0.81910 0.94918
 C1052 C 0.37159 0.82776 0.95596
 C1053 C 0.40395 0.79801 0.92460
 C1054 C 0.42129 0.80953 0.92404
 C1055 C 0.43752 0.80201 0.91569
 C1056 C 0.43667 0.78288 0.90784
 C1057 C 0.41961 0.77120 0.90862
 C1058 C 0.40335 0.77869 0.91695
 C1059 C 0.45297 0.77561 0.89815
 C1060 C 0.46646 0.76979 0.88955
 H1061 H 0.33764 0.80790 0.92197
 H1062 H 0.36635 0.79277 0.90988
 H1063 H 0.40191 0.82236 0.95699
 H1064 H 0.37313 0.83770 0.96871
 H1065 H 0.42214 0.82453 0.92954
 H1066 H 0.45061 0.81122 0.91503
 H1067 H 0.41879 0.75637 0.90255
 H1068 H 0.39029 0.76941 0.91738
 C1069 C 1.18696 0.83839 0.01051
 C1070 C 1.17351 0.82945 0.01690
 C1071 C 1.15746 0.81911 0.02491
 C1072 C 1.13931 0.82725 0.02514
 C1073 C 1.12395 0.81773 0.03382
 C1074 C 1.12657 0.79993 0.04243
 C1075 C 1.14479 0.79171 0.04183
 C1076 C 1.16013 0.80125 0.03314
 C1077 C 1.11056 0.79038 0.05260
 C1078 C 1.11443 0.78192 0.07048
 C1079 C 1.09930 0.77374 0.08056
 C1080 C 1.08011 0.77387 0.07291
 C1081 C 1.07611 0.78199 0.05501
 C1082 C 1.09123 0.79019 0.04489
 C1083 C 1.06452 0.76634 0.08386
 C1084 C 1.05164 0.76034 0.09344
 H1085 H 1.13712 0.84112 0.01890
 H1086 H 1.11019 0.82457 0.03427
 H1087 H 1.14718 0.77791 0.04811
 H1088 H 1.17412 0.79482 0.03302
 H1089 H 1.12910 0.78209 0.07694
 H1090 H 1.10254 0.76759 0.09446
 H1091 H 1.06130 0.78216 0.04896
 H1092 H 1.08782 0.79638 0.03106
 C1093 C 0.68613 0.33753 0.51145
 C1094 C 0.67268 0.32871 0.51799
 C1095 C 0.65664 0.31853 0.52619
 C1096 C 0.63868 0.32700 0.52691
 C1097 C 0.62335 0.31763 0.53577
 C1098 C 0.62581 0.29964 0.54406
 C1099 C 0.64384 0.29110 0.54298
 C1100 C 0.65915 0.30051 0.53411
 C1101 C 0.60984 0.29021 0.55439
 C1102 C 0.61385 0.28142 0.57206
 C1103 C 0.59878 0.27333 0.58228
 C1104 C 0.57950 0.27388 0.57499
 C1105 C 0.57536 0.28234 0.55729
 C1106 C 0.59043 0.29044 0.54703
 C1107 C 0.56399 0.26643 0.58608
 C1108 C 0.55116 0.26050 0.59575
 H1109 H 0.63662 0.34100 0.52092
 H1110 H 0.60975 0.32471 0.53660
 H1111 H 0.64610 0.27716 0.54901
 H1112 H 0.67300 0.29382 0.53362
 H1113 H 0.62860 0.28125 0.57826
 H1114 H 0.60213 0.26693 0.59603
 H1115 H 0.56049 0.28284 0.55151
 H1116 H 0.58690 0.29690 0.53336
 C1117 C 0.31815 0.17787 0.53601
 C1118 C 0.33335 0.18551 0.54260
 C1119 C 0.35183 0.19391 0.55035
 C1120 C 0.35590 0.19587 0.57052
 C1121 C 0.37432 0.20277 0.57803
 C1122 C 0.38895 0.20777 0.56545
 C1123 C 0.38460 0.20607 0.54520
 C1124 C 0.36618 0.19916 0.53772
 C1125 C 0.40882 0.21418 0.57335
 C1126 C 0.41943 0.22919 0.56493
 C1127 C 0.43834 0.23479 0.57206
 C1128 C 0.44690 0.22547 0.58768
 C1129 C 0.43643 0.21062 0.59625
 C1130 C 0.41752 0.20500 0.58915
 C1131 C 0.46645 0.23106 0.59487
 C1132 C 0.48282 0.23570 0.60094
 H1133 H 0.34491 0.19181 0.58043
 H1134 H 0.37714 0.20417 0.59368
 H1135 H 0.39561 0.20955 0.53512
 H1136 H 0.36323 0.19755 0.52208
 H1137 H 0.41306 0.23668 0.55291
 H1138 H 0.44630 0.24636 0.56537
 H1139 H 0.44294 0.20328 0.60832
 H1140 H 0.40986 0.19321 0.59577
 C1141 C 0.81823 0.67646 0.03565
 C1142 C 0.83349 0.68409 0.04205
 C1143 C 0.85205 0.69254 0.04956
 C1144 C 0.86465 0.70143 0.03705
 C1145 C 0.88319 0.70850 0.04404
 C1146 C 0.88939 0.70673 0.06366
 C1147 C 0.87648 0.69806 0.07620
 C1148 C 0.85795 0.69099 0.06917
 C1149 C 0.90941 0.71336 0.07090
 C1150 C 0.91290 0.72273 0.08949
 C1151 C 0.93183 0.72849 0.09644
 C1152 C 0.94751 0.72496 0.08493
 C1153 C 0.94418 0.71577 0.06638
 C1154 C 0.92527 0.71001 0.05939
 C1155 C 0.96702 0.73059 0.09222
 C1156 C 0.98335 0.73527 0.09837
 H1157 H 0.86024 0.70268 0.02184
 H1158 H 0.89269 0.71533 0.03410
 H1159 H 0.88090 0.69625 0.09131
 H1160 H 0.84837 0.68399 0.07895
 H1161 H 0.90098 0.72571 0.09859
 H1162 H 0.93424 0.73564 0.11080
 H1163 H 0.95622 0.71292 0.05737
 H1164 H 0.92310 0.70259 0.04514
 C1165 C 0.68033 0.68059 0.96751
 C1166 C 0.66698 0.68870 0.96008
 C1167 C 0.65073 0.69787 0.95115
 C1168 C 0.65044 0.70175 0.93138
 C1169 C 0.63420 0.70970 0.92246
 C1170 C 0.61800 0.71385 0.93320
 C1171 C 0.61855 0.71014 0.95314
 C1172 C 0.63480 0.70218 0.96203
 C1173 C 0.60038 0.72149 0.92357
 C1174 C 0.59000 0.73580 0.93315
 C1175 C 0.57306 0.74248 0.92430
 C1176 C 0.56628 0.73497 0.90577
 C1177 C 0.57659 0.72087 0.89604
 C1178 C 0.59352 0.71418 0.90486
 C1179 C 0.54852 0.74139 0.89689
 C1180 C 0.53356 0.74654 0.88944
 H1181 H 0.66269 0.69845 0.92282
 H1182 H 0.63432 0.71261 0.90716
 H1183 H 0.60622 0.71291 0.96175
 H1184 H 0.63481 0.69912 0.97731
 H1185 H 0.59502 0.74188 0.94746
 H1186 H 0.56521 0.75342 0.93195
 H1187 H 0.57142 0.71490 0.88173
 H1188 H 0.60101 0.70296 0.89721
 C1189 C 0.18063 0.18109 0.46659
 C1190 C 0.16724 0.18912 0.45912
 C1191 C 0.15095 0.19818 0.45014
 C1192 C 0.13926 0.20968 0.46146
 C1193 C 0.12285 0.21765 0.45290
 C1194 C 0.11789 0.21420 0.43287
 C1195 C 0.12990 0.20284 0.42157
 C1196 C 0.14629 0.19488 0.43017
 C1197 C 0.09999 0.22193 0.42390
 C1198 C 0.09992 0.22928 0.40520
 C1199 C 0.08287 0.23597 0.39655
 C1200 C 0.06570 0.23539 0.40646
 C1201 C 0.06567 0.22826 0.42513
 C1202 C 0.08269 0.22159 0.43381
 C1203 C 0.04801 0.24172 0.39737
 C1204 C 0.03308 0.24681 0.38979
 H1205 H 0.14272 0.21232 0.47695
 H1206 H 0.11404 0.22652 0.46194
 H1207 H 0.12634 0.19969 0.40618
 H1208 H 0.15517 0.18591 0.42128
 H1209 H 0.11305 0.22995 0.39730
 H1210 H 0.08307 0.24148 0.38210
 H1211 H 0.05244 0.22767 0.43290
 H1212 H 0.08219 0.21576 0.44809
 C1213 C 0.58232 0.06486 0.71622
 C1214 C 0.57380 0.07834 0.71017
 C1215 C 0.56447 0.09480 0.70265
 C1216 C 0.56114 0.11080 0.71510
 C1217 C 0.55375 0.12751 0.70752
 C1218 C 0.54965 0.12846 0.68734
 C1219 C 0.55257 0.11210 0.67502
 C1220 C 0.55996 0.09541 0.68263
 C1221 C 0.54345 0.14674 0.67900
 C1222 C 0.52954 0.14631 0.66323
 C1223 C 0.52493 0.16342 0.65440
 C1224 C 0.53411 0.18117 0.66125
 C1225 C 0.54758 0.18182 0.67724
 C1226 C 0.55221 0.16474 0.68608
 C1227 C 0.53077 0.19849 0.65105
 C1228 C 0.52864 0.21288 0.64214
 H1229 H 0.56463 0.11050 0.73062
 H1230 H 0.55145 0.13978 0.71740
 H1231 H 0.54984 0.11245 0.65941
 H1232 H 0.56263 0.08318 0.67284
 H1233 H 0.52238 0.13272 0.65759
 H1234 H 0.51451 0.16275 0.64200
 H1235 H 0.55490 0.19546 0.68255
 H1236 H 0.56318 0.16555 0.69800
 C1237 C 1.08328 0.56394 0.21259
 C1238 C 1.07487 0.57745 0.20644
 C1239 C 1.06562 0.59396 0.19893
 C1240 C 1.06163 0.59487 0.17885
 C1241 C 1.05421 0.61159 0.17133
 C1242 C 1.05073 0.62767 0.18380
 C1243 C 1.05434 0.62643 0.20401
 C1244 C 1.06175 0.60968 0.21150
 C1245 C 1.04439 0.64598 0.17562
 C1246 C 1.05270 0.66402 0.18315
 C1247 C 1.04793 0.68116 0.17451
 C1248 C 1.03477 0.68055 0.15826
 C1249 C 1.02604 0.66274 0.15096
 C1250 C 1.03079 0.64557 0.15958
 C1251 C 1.03133 0.69798 0.14829
 C1252 C 1.02914 0.71246 0.13953
 H1253 H 1.06471 0.58285 0.16897
 H1254 H 1.05187 0.61218 0.15569
 H1255 H 1.05159 0.63847 0.21399
 H1256 H 1.06482 0.60915 0.22707
 H1257 H 1.06342 0.66481 0.19529
 H1258 H 1.05491 0.69484 0.18018
 H1259 H 1.01588 0.66209 0.13835
 H1260 H 1.02399 0.63194 0.15358
 C1261 C 0.92909 0.91286 0.22574
 C1262 C 0.93672 0.89868 0.21953
 C1263 C 0.94551 0.88174 0.21170
 C1264 C 0.93721 0.87188 0.19477
 C1265 C 0.94587 0.85568 0.18680
 C1266 C 0.96301 0.84909 0.19566
 C1267 C 0.97116 0.85899 0.21279
 C1268 C 0.96245 0.87521 0.22075
 C1269 C 0.97262 0.83238 0.18664
 C1270 C 0.99294 0.83289 0.18565
 C1271 C 1.00188 0.81779 0.17594
 C1272 C 0.99067 0.80195 0.16717
 C1273 C 0.97049 0.80107 0.16848
 C1274 C 0.96151 0.81616 0.17817
 C1275 C 0.99974 0.78736 0.15567
 C1276 C 1.00739 0.77569 0.14543
 H1277 H 0.92413 0.87685 0.18762
 H1278 H 0.93941 0.84858 0.17344
 H1279 H 0.98422 0.85416 0.22005
 H1280 H 0.96897 0.88271 0.23389
 H1281 H 1.00187 0.84527 0.19178
 H1282 H 1.01750 0.81869 0.17487
 H1283 H 0.96166 0.78891 0.16169
 H1284 H 0.94587 0.81523 0.17891
 C1285 C 0.42776 0.41284 0.72743
 C1286 C 0.43549 0.39863 0.72146
 C1287 C 0.44442 0.38167 0.71387
 C1288 C 0.46186 0.37588 0.72253
 C1289 C 0.47075 0.35971 0.71471
 C1290 C 0.46227 0.34912 0.69812
 C1291 C 0.44461 0.35495 0.68968
 C1292 C 0.43577 0.37111 0.69751
 C1293 C 0.47208 0.33252 0.68915
 C1294 C 0.46122 0.31583 0.68145
 C1295 C 0.47032 0.30083 0.67175
 C1296 C 0.49038 0.30228 0.66967
 C1297 C 0.50138 0.31860 0.67770
 C1298 C 0.49232 0.33361 0.68741
 C1299 C 0.49949 0.28775 0.65815
 C1300 C 0.50713 0.27609 0.64787
 H1301 H 0.46866 0.38394 0.73523
 H1302 H 0.48422 0.35546 0.72165
 H1303 H 0.43787 0.34732 0.67672
 H1304 H 0.42230 0.37551 0.69065
 H1305 H 0.44566 0.31445 0.68278
 H1306 H 0.46166 0.28829 0.66553
 H1307 H 0.51690 0.31994 0.67603
 H1308 H 0.50105 0.34636 0.69295
 C1309 C 0.43579 0.55779 0.77567
 C1310 C 0.44402 0.57334 0.77997
 C1311 C 0.45307 0.59215 0.78558
 C1312 C 0.47051 0.59382 0.79705
 C1313 C 0.47833 0.61212 0.80392
 C1314 C 0.46874 0.62899 0.79943
 C1315 C 0.45150 0.62716 0.78745
 C1316 C 0.44373 0.60887 0.78060
 C1317 C 0.47591 0.64830 0.80820
 C1318 C 0.47474 0.66504 0.79744
 C1319 C 0.47973 0.68340 0.80634
 C1320 C 0.48601 0.68525 0.82606
 C1321 C 0.48779 0.66865 0.83671
 C1322 C 0.48281 0.65030 0.82785
 C1323 C 0.48913 0.70415 0.83582
 C1324 C 0.49099 0.71978 0.84451
 H1325 H 0.47785 0.58096 0.80101
 H1326 H 0.49174 0.61307 0.81292
 H1327 H 0.44360 0.63981 0.78398
 H1328 H 0.43015 0.60773 0.77185
 H1329 H 0.46971 0.66396 0.78223
 H1330 H 0.47824 0.69617 0.79797
 H1331 H 0.49248 0.66993 0.85202
 H1332 H 0.48361 0.63775 0.83662
 C1333 C -0.06208 0.05696 0.27715
 C1334 C -0.05370 0.07235 0.28186
 C1335 C -0.04446 0.09095 0.28798
 C1336 C -0.04376 0.10592 0.27504
 C1337 C -0.03642 0.12450 0.28154
 C1338 C -0.02972 0.12834 0.30110
 C1339 C -0.03000 0.11304 0.31385
 C1340 C -0.03734 0.09450 0.30732
 C1341 C -0.02363 0.14841 0.30856
 C1342 C -0.00795 0.15183 0.32246
 C1343 C -0.00344 0.17051 0.33080
 C1344 C -0.01448 0.18599 0.32531
 C1345 C -0.02972 0.18284 0.31107
 C1346 C -0.03425 0.16419 0.30272
 C1347 C -0.01128 0.20474 0.33538
 C1348 C -0.00936 0.22024 0.34431
 H1349 H -0.04928 0.10335 0.26004
 H1350 H -0.03619 0.13592 0.27133
 H1351 H -0.02524 0.11557 0.32906
 H1352 H -0.03796 0.08305 0.31750
 H1353 H 0.00064 0.14002 0.32709
 H1354 H 0.00834 0.17278 0.34187
 H1355 H -0.03848 0.19469 0.30685
 H1356 H -0.04658 0.16201 0.29228
 C1357 C 0.08696 0.42479 0.26325
 C1358 C 0.07942 0.40972 0.26788
 C1359 C 0.07079 0.39188 0.27416
 C1360 C 0.08211 0.37579 0.27640
 C1361 C 0.07420 0.35894 0.28400
 C1362 C 0.05485 0.35799 0.28948
 C1363 C 0.04347 0.37409 0.28675
 C1364 C 0.05141 0.39092 0.27917
 C1365 C 0.04683 0.34072 0.29893
 C1366 C 0.02751 0.33371 0.29459
 C1367 C 0.01954 0.31844 0.30465
 C1368 C 0.03075 0.30994 0.31914
 C1369 C 0.05013 0.31645 0.32321
 C1370 C 0.05815 0.33171 0.31315
 C1371 C 0.02193 0.29566 0.33086
 C1372 C 0.01416 0.28440 0.34118
 H1373 H 0.09715 0.37639 0.27260
 H1374 H 0.08326 0.34672 0.28572
 H1375 H 0.02863 0.37393 0.29109
 H1376 H 0.04257 0.40334 0.27763
 H1377 H 0.01851 0.34019 0.28357
 H1378 H 0.00449 0.31356 0.30144
 H1379 H 0.05889 0.31011 0.33452
 H1380 H 0.07297 0.33694 0.31702
 C1381 C 0.58740 0.92492 0.76405
 C1382 C 0.57983 0.90979 0.76848
 C1383 C 0.57118 0.89186 0.77453
 C1384 C 0.55178 0.89083 0.77945
 C1385 C 0.54381 0.87391 0.78683
 C1386 C 0.55520 0.85780 0.78946
 C1387 C 0.57457 0.85882 0.78405
 C1388 C 0.58250 0.87576 0.77665
 C1389 C 0.54717 0.84044 0.79878
 C1390 C 0.55848 0.83135 0.81294
 C1391 C 0.55044 0.81604 0.82292
 C1392 C 0.53106 0.80957 0.81883
 C1393 C 0.51985 0.81814 0.80438
 C1394 C 0.52785 0.83346 0.79440
 C1395 C 0.52220 0.79529 0.83053
 C1396 C 0.51444 0.78404 0.84085
 H1397 H 0.54293 0.90326 0.77800
 H1398 H 0.52895 0.87369 0.79112
 H1399 H 0.58363 0.84659 0.78570
 H1400 H 0.59756 0.87642 0.77293
 H1401 H 0.57330 0.83655 0.81684
 H1402 H 0.55919 0.80964 0.83420
 H1403 H 0.50480 0.81330 0.80116
 H1404 H 0.51886 0.84001 0.78341
 C1405 C 0.71656 0.58545 0.06465
 C1406 C 0.71066 0.57692 0.07819
 C1407 C 0.70343 0.56758 0.09477
 C1408 C 0.70985 0.57451 0.11359
 C1409 C 0.70181 0.56659 0.12980
 C1410 C 0.68717 0.55160 0.12741
 C1411 C 0.68114 0.54440 0.10843
 C1412 C 0.68921 0.55237 0.09222
 C1413 C 0.67754 0.54436 0.14463
 C1414 C 0.65726 0.54075 0.14390
 C1415 C 0.64794 0.53554 0.16053
 C1416 C 0.65873 0.53379 0.17810
 C1417 C 0.67896 0.53684 0.17888
 C1418 C 0.68832 0.54206 0.16225
 C1419 C 0.64885 0.53019 0.19555
 C1420 C 0.64019 0.52790 0.21007
 H1421 H 0.72075 0.58637 0.11574
 H1422 H 0.70657 0.57267 0.14418
 H1423 H 0.67006 0.53273 0.10611
 H1424 H 0.68411 0.54690 0.07771
 H1425 H 0.64850 0.54268 0.13067
 H1426 H 0.63226 0.53336 0.15980
 H1427 H 0.68745 0.53557 0.19242
 H1428 H 0.70396 0.54450 0.16322
 C1429 C 0.21657 1.08459 0.56473
 C1430 C 0.21068 1.07603 0.57825
 C1431 C 0.20344 1.06665 0.59480
 C1432 C 0.21077 1.07272 0.61360
 C1433 C 0.20275 1.06484 0.62985
 C1434 C 0.18722 1.05078 0.62752
 C1435 C 0.18027 1.04442 0.60853
 C1436 C 0.18832 1.05233 0.59229
 C1437 C 0.17765 1.04367 0.64482
 C1438 C 0.15727 1.04128 0.64462
 C1439 C 0.14812 1.03612 0.66136
 C1440 C 0.15916 1.03323 0.67852
 C1441 C 0.17945 1.03509 0.67877
 C1442 C 0.18866 1.04025 0.66202
 C1443 C 0.14954 1.02964 0.69612
 C1444 C 0.14107 1.02737 0.71076
 H1445 H 0.22238 1.08389 0.61572
 H1446 H 0.20824 1.07028 0.64423
 H1447 H 0.16849 1.03345 0.60625
 H1448 H 0.18252 1.04754 0.57781
 H1449 H 0.14836 1.04409 0.63174
 H1450 H 0.13239 1.03487 0.66104
 H1451 H 0.18815 1.03293 0.69199
 H1452 H 0.20437 1.04175 0.66259
 C1453 C 0.22971 0.92994 0.91277
 C1454 C 0.22405 0.93788 0.89848
 C1455 C 0.21686 0.94708 0.88143
 C1456 C 0.21014 0.96583 0.88314
 C1457 C 0.20215 0.97436 0.86676
 C1458 C 0.20075 0.96421 0.84844
 C1459 C 0.20786 0.94549 0.84682
 C1460 C 0.21585 0.93699 0.86322
 C1461 C 0.19113 0.97282 0.83132
 C1462 C 0.17826 0.96135 0.81840
 C1463 C 0.16812 0.96969 0.80309
 C1464 C 0.17075 0.98958 0.80044
 C1465 C 0.18387 1.00103 0.81292
 C1466 C 0.19402 0.99272 0.82825
 C1467 C 0.15894 0.99845 0.78586
 C1468 C 0.14842 1.00595 0.77424
 H1469 H 0.21076 0.97372 0.89719
 H1470 H 0.19656 0.98867 0.86855
 H1471 H 0.20718 0.93741 0.83288
 H1472 H 0.22102 0.92246 0.86174
 H1473 H 0.17550 0.94606 0.82052
 H1474 H 0.15787 0.96073 0.79362
 H1475 H 0.18596 1.01646 0.81104
 H1476 H 0.20400 1.00187 0.83780
 C1477 C 0.72801 0.42992 0.41193
 C1478 C 0.72233 0.43785 0.39765
 C1479 C 0.71512 0.44705 0.38062
 C1480 C 0.70824 0.46574 0.38237
 C1481 C 0.70028 0.47429 0.36599
 C1482 C 0.69906 0.46424 0.34763
 C1483 C 0.70630 0.44558 0.34597
 C1484 C 0.71427 0.43705 0.36237
 C1485 C 0.68951 0.47288 0.33050
 C1486 C 0.67679 0.46141 0.31742
 C1487 C 0.66672 0.46979 0.30209
 C1488 C 0.66925 0.48971 0.29958
 C1489 C 0.68222 0.50116 0.31221
 C1490 C 0.69231 0.49281 0.32756
 C1491 C 0.65748 0.49861 0.28499
 C1492 C 0.64701 0.50617 0.27336
 H1493 H 0.70873 0.47356 0.39645
 H1494 H 0.69457 0.48855 0.36782
 H1495 H 0.70577 0.43756 0.33200
 H1496 H 0.71956 0.42258 0.36085
 H1497 H 0.67411 0.44608 0.31943
 H1498 H 0.65658 0.46082 0.29250
 H1499 H 0.68424 0.51661 0.31044
 H1500 H 0.70218 0.50197 0.33723
 C1501 C 0.77615 0.43648 0.55764
 C1502 C 0.78066 0.44464 0.57325
 C1503 C 0.78652 0.45361 0.59213
 C1504 C 0.79891 0.47034 0.59378
 C1505 C 0.80598 0.47800 0.61216
 C1506 C 0.80077 0.46896 0.62914
 C1507 C 0.78788 0.45245 0.62731
 C1508 C 0.78084 0.44484 0.60894
 C1509 C 0.80964 0.47590 0.64856
 C1510 C 0.79868 0.47572 0.66522
 C1511 C 0.80755 0.48057 0.68371
 C1512 C 0.82745 0.48574 0.68577
 C1513 C 0.83834 0.48651 0.66925
 C1514 C 0.82952 0.48166 0.65077
 C1515 C 0.83707 0.48878 0.70485
 C1516 C 0.84563 0.49056 0.72063
 H1517 H 0.80343 0.47723 0.58085
 H1518 H 0.81569 0.49085 0.61308
 H1519 H 0.78382 0.44497 0.64005
 H1520 H 0.77136 0.43180 0.60783
 H1521 H 0.78332 0.47157 0.66398
 H1522 H 0.79899 0.47986 0.69641
 H1523 H 0.85379 0.49032 0.67070
 H1524 H 0.83843 0.48167 0.63831
 C1525 C 0.27704 -0.06239 0.05698
 C1526 C 0.28154 -0.05423 0.07259
 C1527 C 0.28741 -0.04527 0.09147
 C1528 C 0.28149 -0.05390 0.10826
 C1529 C 0.28855 -0.04635 0.12665
 C1530 C 0.30171 -0.03004 0.12850
 C1531 C 0.30715 -0.02113 0.11153
 C1532 C 0.30006 -0.02873 0.09314
 C1533 C 0.31062 -0.02321 0.14794
 C1534 C 0.33057 -0.01779 0.15020
 C1535 C 0.33941 -0.01307 0.16869
 C1536 C 0.32846 -0.01366 0.18519
 C1537 C 0.30850 -0.01850 0.18308
 C1538 C 0.29962 -0.02321 0.16457
 C1539 C 0.33808 -0.01078 0.20427
 C1540 C 0.34666 -0.00913 0.22004
 H1541 H 0.27181 -0.06680 0.10713
 H1542 H 0.28431 -0.05373 0.13938
 H1543 H 0.31707 -0.00844 0.11247
 H1544 H 0.30478 -0.02195 0.08022
 H1545 H 0.33952 -0.01794 0.13776
 H1546 H 0.35490 -0.00952 0.17017
 H1547 H 0.29990 -0.01906 0.19576
 H1548 H 0.28419 -0.02710 0.16329
 C1549 C 0.26786 0.09040 0.42564
 C1550 C 0.27288 0.08313 0.41057
 C1551 C 0.27963 0.07484 0.39272
 C1552 C 0.27127 0.05727 0.38440
 C1553 C 0.27858 0.04887 0.36758
 C1554 C 0.29438 0.05794 0.35888
 C1555 C 0.30245 0.07577 0.36719
 C1556 C 0.29512 0.08413 0.38399
 C1557 C 0.30308 0.04846 0.34181
 C1558 C 0.30990 0.05952 0.32671
 C1559 C 0.31943 0.05073 0.31144
 C1560 C 0.32220 0.03079 0.31103
 C1561 C 0.31504 0.01960 0.32571
 C1562 C 0.30553 0.02835 0.34098
 C1563 C 0.33352 0.02191 0.29641
 C1564 C 0.34354 0.01406 0.28491
 H1565 H 0.25926 0.04997 0.39103
 H1566 H 0.27192 0.03525 0.36141
 H1567 H 0.31480 0.08297 0.36106
 H1568 H 0.30176 0.09769 0.39037
 H1569 H 0.30802 0.07499 0.32682
 H1570 H 0.32496 0.05954 0.30018
 H1571 H 0.31726 0.00418 0.32562
 H1572 H 0.30073 0.01948 0.35250
 C1573 C 0.76567 0.58794 0.92652
 C1574 C 0.77030 0.58024 0.91149
 C1575 C 0.77653 0.57139 0.89367
 C1576 C 0.78261 0.55237 0.89322
 C1577 C 0.79000 0.54424 0.87634
 C1578 C 0.79146 0.55507 0.85965
 C1579 C 0.78495 0.57406 0.86012
 C1580 C 0.77754 0.58216 0.87703
 C1581 C 0.80058 0.54687 0.84221
 C1582 C 0.81370 0.55840 0.83219
 C1583 C 0.82350 0.55030 0.81676
 C1584 C 0.82027 0.53062 0.81108
 C1585 C 0.80686 0.51916 0.82060
 C1586 C 0.79705 0.52722 0.83604
 C1587 C 0.83183 0.52179 0.79664
 C1588 C 0.84203 0.51398 0.78529
 H1589 H 0.78204 0.54396 0.90606
 H1590 H 0.79516 0.52970 0.87655
 H1591 H 0.78568 0.58269 0.84745
 H1592 H 0.77291 0.59692 0.87722
 H1593 H 0.81693 0.57350 0.83675
 H1594 H 0.83399 0.55926 0.80962
 H1595 H 0.80430 0.50388 0.81638
 H1596 H 0.78687 0.51804 0.84330
 C1597 C 0.06217 0.71490 0.58310
 C1598 C 0.07539 0.70886 0.57422
 C1599 C 0.09161 0.70141 0.56447
 C1600 C 0.10722 0.71393 0.56029
 C1601 C 0.12378 0.70646 0.55252
 C1602 C 0.12495 0.68633 0.54887
 C1603 C 0.10895 0.67393 0.55263
 C1604 C 0.09241 0.68143 0.56039
 C1605 C 0.14316 0.67814 0.54232
 C1606 C 0.14253 0.66210 0.52881
 C1607 C 0.15963 0.65340 0.52400
 C1608 C 0.17756 0.66063 0.53257
 C1609 C 0.17839 0.67690 0.54561
 C1610 C 0.16133 0.68563 0.55044
 C1611 C 0.19490 0.65052 0.52920
 C1612 C 0.20933 0.64167 0.52712
 H1613 H 0.10678 0.72943 0.56344
 H1614 H 0.13576 0.71640 0.54958
 H1615 H 0.10948 0.65835 0.55027
 H1616 H 0.08048 0.67159 0.56372
 H1617 H 0.12880 0.65615 0.52215
 H1618 H 0.15881 0.64077 0.51393
 H1619 H 0.19217 0.68252 0.55247
 H1620 H 0.16230 0.69776 0.56110
 C1621 C 0.56459 0.21427 1.08294
 C1622 C 0.57790 0.20814 1.07426
 C1623 C 0.59417 0.20055 1.06471
 C1624 C 0.59506 0.18051 1.06108
 C1625 C 0.61158 0.17291 1.05340
 C1626 C 0.62749 0.18526 1.04928
 C1627 C 0.62626 0.20544 1.05251
 C1628 C 0.60970 0.21301 1.06020
 C1629 C 0.64566 0.17701 1.04271
 C1630 C 0.66387 0.18468 1.05053
 C1631 C 0.68091 0.17592 1.04568
 C1632 C 0.68002 0.15944 1.03292
 C1633 C 0.66203 0.15201 1.02464
 C1634 C 0.64496 0.16075 1.02947
 C1635 C 0.69735 0.14933 1.02952
 C1636 C 0.71177 0.14046 1.02741
 H1637 H 0.58319 0.17071 1.06467
 H1638 H 0.61218 0.15731 1.05136
 H1639 H 0.63817 0.21533 1.04929
 H1640 H 0.60919 0.22855 1.06299
 H1641 H 0.66491 0.19700 1.06097
 H1642 H 0.69474 0.18169 1.05230
 H1643 H 0.66116 0.13922 1.01479
 H1644 H 0.63119 0.15464 1.02304
 C1645 C 0.91290 0.22438 0.92754
 C1646 C 0.89862 0.21832 0.93509
 C1647 C 0.88157 0.21071 0.94383
 C1648 C 0.87541 0.21952 0.96101
 C1649 C 0.85910 0.21176 0.96968
 C1650 C 0.84876 0.19506 0.96125
 C1651 C 0.85498 0.18646 0.94385
 C1652 C 0.87127 0.19424 0.93523
 C1653 C 0.83198 0.18620 0.97085
 C1654 C 0.81550 0.17828 0.95971
 C1655 C 0.80033 0.16874 0.96868
 C1656 C 0.80139 0.16706 0.98887
 C1657 C 0.81750 0.17529 1.00013
 C1658 C 0.83269 0.18482 0.99120
 C1659 C 0.78669 0.15574 0.99792
 C1660 C 0.77495 0.14565 1.00563
 H1661 H 0.88326 0.23231 0.96776
 H1662 H 0.85455 0.21883 0.98295
 H1663 H 0.84753 0.17343 0.93716
 H1664 H 0.87596 0.18727 0.92196
 H1665 H 0.81442 0.17932 0.94405
 H1666 H 0.78795 0.16237 0.95982
 H1667 H 0.81855 0.17392 1.01575
 H1668 H 0.84527 0.19052 1.00015
 C1669 C 0.41075 0.72593 0.42808
 C1670 C 0.39640 0.72001 0.43560
 C1671 C 0.37929 0.71251 0.44430
 C1672 C 0.36835 0.69669 0.43515
 C1673 C 0.35204 0.68893 0.44378
 C1674 C 0.34645 0.69689 0.46172
 C1675 C 0.35741 0.71296 0.47069
 C1676 C 0.37373 0.72071 0.46202
 C1677 C 0.32972 0.68795 0.47132
 C1678 C 0.33085 0.68558 0.49153
 C1679 C 0.31568 0.67595 0.50038
 C1680 C 0.29915 0.66861 0.48920
 C1681 C 0.29766 0.67129 0.46917
 C1682 C 0.31283 0.68092 0.46028
 C1683 C 0.28440 0.65721 0.49811
 C1684 C 0.27263 0.64705 0.50569
 H1685 H 0.37256 0.69020 0.42146
 H1686 H 0.34411 0.67638 0.43665
 H1687 H 0.35336 0.71954 0.48439
 H1688 H 0.38207 0.73299 0.46920
 H1689 H 0.34375 0.69058 0.50039
 H1690 H 0.31705 0.67381 0.51587
 H1691 H 0.28495 0.66561 0.46037
 H1692 H 0.31141 0.68274 0.44474
 C1693 C 0.55583 0.77525 0.43801
 C1694 C 0.57137 0.77975 0.44626
 C1695 C 0.59020 0.78560 0.45527
 C1696 C 0.59188 0.79820 0.47192
 C1697 C 0.61022 0.80528 0.47954
 C1698 C 0.62712 0.79989 0.47054
 C1699 C 0.62527 0.78679 0.45412
 C1700 C 0.60693 0.77972 0.44655
 C1701 C 0.64649 0.80880 0.47737
 C1702 C 0.66315 0.79784 0.47725
 C1703 C 0.68158 0.80674 0.48189
 C1704 C 0.68359 0.82668 0.48678
 C1705 C 0.66708 0.83758 0.48752
 C1706 C 0.64865 0.82873 0.48288
 C1707 C 0.70258 0.83631 0.48956
 C1708 C 0.71828 0.84488 0.49111
 H1709 H 0.57901 0.80288 0.47876
 H1710 H 0.61118 0.81516 0.49231
 H1711 H 0.63794 0.78258 0.44666
 H1712 H 0.60579 0.77009 0.43357
 H1713 H 0.66195 0.78244 0.47330
 H1714 H 0.69428 0.79817 0.48122
 H1715 H 0.66848 0.85306 0.49113
 H1716 H 0.63619 0.83765 0.48283
 C1717 C 0.05564 0.27480 -0.06088
 C1718 C 0.07102 0.27952 -0.05239
 C1719 C 0.08963 0.28568 -0.04308
 C1720 C 0.10461 0.27277 -0.04207
 C1721 C 0.12324 0.27932 -0.03479
 C1722 C 0.12711 0.29890 -0.02848
 C1723 C 0.11180 0.31161 -0.02903
 C1724 C 0.09321 0.30503 -0.03631
 C1725 C 0.14723 0.30640 -0.02258
 C1726 C 0.15078 0.32055 -0.00718
 C1727 C 0.16948 0.32896 -0.00296
 C1728 C 0.18487 0.32330 -0.01400
 C1729 C 0.18161 0.30880 -0.02893
 C1730 C 0.16294 0.30038 -0.03318
 C1731 C 0.20361 0.33344 -0.01115
 C1732 C 0.21907 0.34243 -0.00951
 H1733 H 0.10202 0.25777 -0.04733
 H1734 H 0.13466 0.26914 -0.03435
 H1735 H 0.11435 0.32682 -0.02457
 H1736 H 0.08176 0.31519 -0.03718
 H1737 H 0.13904 0.32532 0.00138
 H1738 H 0.17184 0.34022 0.00859
 H1739 H 0.19338 0.30444 -0.03768
 H1740 H 0.16066 0.28974 -0.04530
 C1741 C 0.42563 0.26519 0.08927
 C1742 C 0.41047 0.27010 0.08204
 C1743 C 0.39255 0.27680 0.07383
 C1744 C 0.38423 0.29273 0.08282
 C1745 C 0.36734 0.29999 0.07453
 C1746 C 0.35851 0.29140 0.05707
 C1747 C 0.36680 0.27516 0.04829
 C1748 C 0.38373 0.26792 0.05663
 C1749 C 0.34129 0.29996 0.04766
 C1750 C 0.33988 0.30173 0.02736
 C1751 C 0.32450 0.31118 0.01864
 C1752 C 0.31029 0.31893 0.03003
 C1753 C 0.31127 0.31682 0.05017
 C1754 C 0.32665 0.30737 0.05894
 C1755 C 0.29556 0.33018 0.02116
 C1756 C 0.28391 0.34014 0.01337
 H1757 H 0.39099 0.29977 0.09609
 H1758 H 0.36152 0.31268 0.08148
 H1759 H 0.36023 0.26811 0.03496
 H1760 H 0.39004 0.25556 0.04956
 H1761 H 0.35104 0.29645 0.01831
 H1762 H 0.32396 0.31287 0.00306
 H1763 H 0.30037 0.32282 0.05913
 H1764 H 0.32720 0.30603 0.07456
 C1765 C 0.92383 0.76672 0.59188
 C1766 C 0.90868 0.77177 0.58476
 C1767 C 0.89077 0.77856 0.57660
 C1768 C 0.88299 0.79506 0.58512
 C1769 C 0.86613 0.80237 0.57681
 C1770 C 0.85681 0.79329 0.55982
 C1771 C 0.86455 0.77649 0.55155
 C1772 C 0.88144 0.76919 0.55990
 C1773 C 0.83967 0.80190 0.55029
 C1774 C 0.83795 0.80279 0.52990
 C1775 C 0.82268 0.81224 0.52098
 C1776 C 0.80889 0.82089 0.53227
 C1777 C 0.81017 0.81968 0.55253
 C1778 C 0.82544 0.81022 0.56149
 C1779 C 0.79433 0.83213 0.52308
 C1780 C 0.78289 0.84205 0.51494
 H1781 H 0.89015 0.80247 0.59801
 H1782 H 0.86074 0.81548 0.58336
 H1783 H 0.85759 0.76905 0.53860
 H1784 H 0.88732 0.75640 0.55321
 H1785 H 0.84880 0.79681 0.52088
 H1786 H 0.82193 0.81325 0.50530
 H1787 H 0.79961 0.82638 0.56142
 H1788 H 0.82623 0.80957 0.57720
   
