data_POSCAR
  _audit_creation_date              2014-09-24
  _audit_creation_method            'ToBaCCo'
  _symmetry_space_group_name_H-M    'P1'
  _symmetry_Int_Tables_number       1
  _symmetry_cell_setting            triclinic
  loop_
  _symmetry_equiv_pos_as_xyz
 x,y,z
_cell_length_a 58.0622
_cell_length_b 57.7161
_cell_length_c 58.2466
_cell_angle_alpha 89.914700
_cell_angle_beta 90.032400
_cell_angle_gamma 89.958900
loop_
  _atom_site_label
  _atom_site_type_symbol
  _atom_site_fract_x
  _atom_site_fract_y
  _atom_site_fract_z
C1 C 0.38117 0.27743 0.01219
 C2 C 0.38179 0.27807 -0.01130
 C3 C 0.36546 0.29424 -0.01822
 N4 N 0.35497 0.30343 0.00038
 C5 C 0.36455 0.29328 0.01901
 C6 C 0.36028 0.29967 -0.04139
 C7 C 0.34285 0.31532 -0.04858
 C8 C 0.33553 0.31786 -0.07115
 C9 C 0.31838 0.33424 -0.07113
 C10 C 0.31558 0.34144 -0.04856
 N11 N 0.33082 0.33004 -0.03500
 C12 C 0.29931 0.35829 -0.04138
 C13 C 0.29419 0.36369 -0.01821
 C14 C 0.27809 0.38005 -0.01128
 C15 C 0.27778 0.37963 0.01223
 C16 C 0.29371 0.36306 0.01902
 N17 N 0.30365 0.35337 0.00038
 C18 C 0.29922 0.35792 0.04214
 C19 C 0.31607 0.34170 0.04936
 C20 C 0.32341 0.33916 0.07191
 C21 C 0.34030 0.32250 0.07190
 C22 C 0.34293 0.31522 0.04935
 N23 N 0.32774 0.32668 0.03581
 C24 C 0.35934 0.29859 0.04213
 H25 H 0.39185 0.26657 0.02300
 H26 H 0.39290 0.26764 -0.02205
 H27 H 0.32453 0.32341 0.01865
 H28 H 0.34173 0.30869 -0.08611
 H29 H 0.30892 0.34006 -0.08609
 H30 H 0.26761 0.39117 -0.02203
 H31 H 0.26714 0.39047 0.02306
 H32 H 0.34984 0.31670 0.08682
 H33 H 0.33409 0.33343 -0.01787
 H34 H 0.31749 0.34860 0.08682
 C35 C 0.73094 0.62772 -0.01114
 C36 C 0.73106 0.62808 0.01240
 C37 C 0.71211 0.64106 0.01908
 N38 N 0.70038 0.64849 0.00041
 C39 C 0.71191 0.64051 -0.01812
 C40 C 0.70508 0.64437 0.04205
 C41 C 0.68670 0.65894 0.04871
 C42 C 0.67690 0.65926 0.07043
 C43 C 0.66040 0.67637 0.07026
 C44 C 0.66056 0.68606 0.04844
 N45 N 0.67680 0.67548 0.03551
 C46 C 0.64670 0.70494 0.04145
 C47 C 0.64400 0.71208 0.01841
 C48 C 0.63186 0.73155 0.01141
 C49 C 0.63187 0.73137 -0.01214
 C50 C 0.64401 0.71178 -0.01877
 N51 N 0.65127 0.69997 -0.00007
 C52 C 0.64666 0.70426 -0.04168
 C53 C 0.66036 0.68516 -0.04831
 C54 C 0.65996 0.67502 -0.06989
 C55 C 0.67630 0.65776 -0.06975
 C56 C 0.68629 0.65779 -0.04807
 N57 N 0.67662 0.67472 -0.03523
 C58 C 0.70462 0.64318 -0.04114
 H59 H 0.74329 0.61880 -0.02189
 H60 H 0.74349 0.61948 0.02333
 H61 H 0.68244 0.68043 -0.01938
 H62 H 0.68126 0.64839 0.08495
 H63 H 0.64963 0.68121 0.08463
 H64 H 0.62357 0.74438 0.02213
 H65 H 0.62358 0.74402 -0.02311
 H66 H 0.68045 0.64655 -0.08405
 H67 H 0.68250 0.68089 0.01951
 H68 H 0.64912 0.67965 -0.08430
 C69 C 0.60944 0.28969 1.00967
 C70 C 0.60939 0.29005 0.98612
 C71 C 0.62940 0.30130 0.97943
 N72 N 0.64172 0.30762 0.99809
 C73 C 0.62951 0.30071 1.01663
 C74 C 0.63661 0.30424 0.95646
 C75 C 0.65583 0.31764 0.94980
 C76 C 0.66541 0.31775 0.92798
 C77 C 0.68263 0.33413 0.92809
 C78 C 0.68311 0.34355 0.94999
 N79 N 0.66663 0.33351 0.96303
 C80 C 0.69754 0.36194 0.95693
 C81 C 0.70102 0.36842 0.98002
 C82 C 0.71374 0.38744 0.98712
 C83 C 0.71410 0.38680 1.01066
 C84 C 0.70158 0.36742 1.01718
 N85 N 0.69378 0.35613 0.99842
 C86 C 0.69879 0.35972 1.04002
 C87 C 0.68420 0.34129 1.04658
 C88 C 0.68407 0.33100 1.06812
 C89 C 0.66658 0.31493 1.06804
 C90 C 0.65648 0.31582 1.04643
 N91 N 0.66724 0.33205 1.03356
 C92 C 0.63693 0.30289 1.03965
 H93 H 0.59633 0.28196 1.02044
 H94 H 0.59623 0.28268 0.97517
 H95 H 0.66161 0.33836 1.01784
 H96 H 0.66035 0.30731 0.91340
 H97 H 0.69341 0.33873 0.91364
 H98 H 0.72209 0.40031 0.97647
 H99 H 0.72275 0.39911 1.02169
 H100 H 0.66170 0.30400 1.08235
 H101 H 0.66125 0.33911 0.97907
 H102 H 0.69524 0.33486 1.08250
 C103 C 0.36989 0.73055 0.98939
 C104 C 0.37002 0.73060 1.01292
 C105 C 0.35794 0.71107 1.01990
 N106 N 0.35054 0.69911 1.00138
 C107 C 0.35773 0.71102 0.98271
 C108 C 0.35563 0.70361 1.04291
 C109 C 0.34157 0.68483 1.04983
 C110 C 0.34204 0.67459 1.07142
 C111 C 0.32530 0.65775 1.07151
 C112 C 0.31502 0.65810 1.04998
 N113 N 0.32487 0.67484 1.03700
 C114 C 0.29632 0.64392 1.04326
 C115 C 0.28879 0.64143 1.02030
 C116 C 0.26936 0.62921 1.01353
 C117 C 0.26924 0.62926 0.98999
 C118 C 0.28859 0.64150 0.98311
 N119 N 0.30054 0.64882 1.00165
 C120 C 0.29583 0.64406 0.96012
 C121 C 0.31439 0.65824 0.95318
 C122 C 0.32435 0.65794 0.93153
 C123 C 0.34113 0.67476 0.93144
 C124 C 0.34096 0.68488 0.95304
 N125 N 0.32443 0.67489 0.96607
 C126 C 0.35513 0.70355 0.95979
 H127 H 0.37808 0.74328 0.97845
 H128 H 0.37835 0.74339 1.02366
 H129 H 0.31876 0.68069 0.98194
 H130 H 0.35321 0.67889 1.08567
 H131 H 0.32110 0.64657 1.08585
 H132 H 0.25674 0.62085 1.02441
 H133 H 0.25652 0.62096 0.97920
 H134 H 0.35212 0.67911 0.91707
 H135 H 0.31896 0.68070 1.02120
 H136 H 0.31992 0.64683 0.91724
 C137 C -0.01189 0.37057 0.27074
 C138 C 0.01173 0.37034 0.27056
 C139 C 0.01861 0.35813 0.28992
 N140 N -0.00002 0.35105 0.30194
 C141 C -0.01871 0.35850 0.29021
 C142 C 0.04169 0.35526 0.29702
 C143 C 0.04856 0.34135 0.31579
 C144 C 0.07036 0.34151 0.32557
 C145 C 0.07037 0.32495 0.34257
 C146 C 0.04858 0.31510 0.34272
 N147 N 0.03550 0.32504 0.32619
 C148 C 0.04175 0.29664 0.35712
 C149 C 0.01871 0.28939 0.35994
 C150 C 0.01192 0.27007 0.37239
 C151 C -0.01168 0.27011 0.37248
 C152 C -0.01859 0.28949 0.36010
 N153 N 0.00005 0.30127 0.35257
 C154 C -0.04164 0.29696 0.35754
 C155 C -0.04845 0.31569 0.34336
 C156 C -0.07006 0.32601 0.34369
 C157 C -0.07007 0.34270 0.32683
 C158 C -0.04848 0.34217 0.31659
 N159 N -0.03552 0.32550 0.32665
 C160 C -0.04175 0.35607 0.29771
 H161 H -0.02280 0.37897 0.25815
 H162 H 0.02259 0.37852 0.25782
 H163 H -0.01971 0.31950 0.32082
 H164 H 0.08482 0.35234 0.32086
 H165 H 0.08484 0.32056 0.35348
 H166 H 0.02283 0.25741 0.38078
 H167 H -0.02253 0.25748 0.38096
 H168 H -0.08442 0.35387 0.32250
 H169 H 0.01947 0.31933 0.32070
 H170 H -0.08438 0.32184 0.35484
 C171 C 0.01314 0.71509 0.61423
 C172 C -0.01047 0.71543 0.61446
 C173 C -0.01729 0.70368 0.63413
 N174 N 0.00140 0.69638 0.64596
 C175 C 0.02002 0.70316 0.63376
 C176 C -0.04035 0.70110 0.64152
 C177 C -0.04711 0.68710 0.66031
 C178 C -0.06888 0.68716 0.67018
 C179 C -0.06893 0.67014 0.68672
 C180 C -0.04718 0.66012 0.68658
 N181 N -0.03408 0.67048 0.67033
 C182 C -0.04046 0.64096 0.70019
 C183 C -0.01733 0.63388 0.70322
 C184 C -0.01039 0.61424 0.71516
 C185 C 0.01323 0.61446 0.71539
 C186 C 0.01998 0.63417 0.70353
 N187 N 0.00128 0.64608 0.69629
 C188 C 0.04301 0.64150 0.70080
 C189 C 0.04984 0.66014 0.68662
 C190 C 0.07174 0.66976 0.68629
 C191 C 0.07179 0.68627 0.66922
 C192 C 0.04992 0.68632 0.65962
 N193 N 0.03674 0.67023 0.67021
 C194 C 0.04313 0.69997 0.64064
 H195 H 0.02399 0.72295 0.60128
 H196 H -0.02136 0.72354 0.60169
 H197 H 0.02069 0.66459 0.66474
 H198 H -0.08333 0.69814 0.66571
 H199 H -0.08341 0.66549 0.69749
 H200 H -0.02121 0.60124 0.72311
 H201 H 0.02416 0.60163 0.72348
 H202 H 0.08635 0.69688 0.66430
 H203 H -0.01819 0.66468 0.66457
 H204 H 0.08626 0.66516 0.69703
 C205 C 1.01188 0.71373 0.38597
 C206 C 0.98827 0.71343 0.38629
 C207 C 0.98131 0.70108 0.36709
 N208 N 0.99988 0.69403 0.35499
 C209 C 1.01860 0.70158 0.36656
 C210 C 0.95819 0.69780 0.36034
 C211 C 0.95127 0.68332 0.34207
 C212 C 0.92923 0.68264 0.33287
 C213 C 0.92921 0.66548 0.31650
 C214 C 0.95125 0.65617 0.31611
 N215 N 0.96449 0.66701 0.33187
 C216 C 0.95816 0.63726 0.30237
 C217 C 0.98132 0.63065 0.29890
 C218 C 0.98830 0.61120 0.28681
 C219 C 1.01190 0.61176 0.28617
 C220 C 1.01862 0.63157 0.29789
 N221 N 0.99987 0.64315 0.30548
 C222 C 1.04161 0.63933 0.30013
 C223 C 1.04834 0.65833 0.31392
 C224 C 1.06998 0.66858 0.31359
 C225 C 1.06996 0.68541 0.33029
 C226 C 1.04833 0.68504 0.34037
 N227 N 1.03536 0.66836 0.33044
 C228 C 1.04159 0.69899 0.35910
 H229 H 1.02283 0.72209 0.39850
 H230 H 0.97746 0.72150 0.39914
 H231 H 1.01958 0.66243 0.33635
 H232 H 0.91461 0.69323 0.33763
 H233 H 0.91458 0.66032 0.30619
 H234 H 0.97753 0.59809 0.27901
 H235 H 1.02285 0.59913 0.27784
 H236 H 1.08432 0.69653 0.33463
 H237 H 0.98074 0.66178 0.33719
 H238 H 1.08437 0.66423 0.30260
 C239 C 1.01246 0.27955 0.61786
 C240 C 0.98891 0.27867 0.61896
 C241 C 0.98224 0.29417 0.63590
 N242 N 1.00101 0.30434 0.64519
 C243 C 1.01952 0.29547 0.63423
 C244 C 0.95910 0.29906 0.64179
 C245 C 0.95202 0.31589 0.65800
 C246 C 0.92938 0.32297 0.66104
 C247 C 0.92959 0.34001 0.67747
 C248 C 0.95234 0.34293 0.68418
 N249 N 0.96583 0.32783 0.67253
 C250 C 0.95978 0.35947 0.70054
 C251 C 0.98304 0.36456 0.70576
 C252 C 0.99005 0.38112 0.72153
 C253 C 1.01363 0.38142 0.72102
 C254 C 1.02040 0.36498 0.70499
 N255 N 1.00163 0.35474 0.69576
 C256 C 1.04358 0.35940 0.69975
 C257 C 1.05056 0.34245 0.68355
 C258 C 1.07312 0.33493 0.68070
 C259 C 1.07288 0.31852 0.66365
 C260 C 1.05020 0.31632 0.65647
 N261 N 1.03678 0.33123 0.66844
 C262 C 1.04277 0.30081 0.63916
 H263 H 1.02315 0.26947 0.60638
 H264 H 0.97796 0.26797 0.60832
 H265 H 1.01963 0.33487 0.66516
 H266 H 0.91426 0.31681 0.65206
 H267 H 0.91464 0.34940 0.68354
 H268 H 0.97932 0.39195 0.73227
 H269 H 1.02453 0.39246 0.73137
 H270 H 1.08773 0.30908 0.65744
 H271 H 0.98316 0.32483 0.67533
 H272 H 1.08821 0.34055 0.69007
 C273 C 0.39015 -0.01369 0.28818
 C274 C 0.39038 0.01007 0.28826
 C275 C 0.37046 0.01710 0.29938
 N276 N 0.35800 -0.00156 0.30589
 C277 C 0.37006 -0.02044 0.29923
 C278 C 0.36345 0.04039 0.30204
 C279 C 0.34421 0.04739 0.31515
 C280 C 0.33475 0.06948 0.31491
 C281 C 0.31735 0.06962 0.33095
 C282 C 0.31666 0.04762 0.34054
 N283 N 0.33319 0.03427 0.33093
 C284 C 0.30198 0.04086 0.35867
 C285 C 0.29867 0.01767 0.36566
 C286 C 0.28611 0.01089 0.38477
 C287 C 0.28583 -0.01285 0.38472
 C288 C 0.29820 -0.01985 0.36555
 N289 N 0.30588 -0.00114 0.35387
 C290 C 0.30092 -0.04308 0.35836
 C291 C 0.31537 -0.04998 0.34005
 C292 C 0.31538 -0.07182 0.33008
 C293 C 0.33277 -0.07196 0.31406
 C294 C 0.34297 -0.05021 0.31465
 N295 N 0.33233 -0.03701 0.33064
 C296 C 0.36249 -0.04360 0.30167
 H297 H 0.40317 -0.02474 0.28062
 H298 H 0.40360 0.02091 0.28077
 H299 H 0.33806 -0.02112 0.33666
 H300 H 0.34000 0.08407 0.30445
 H301 H 0.30662 0.08433 0.33524
 H302 H 0.27789 0.02190 0.39737
 H303 H 0.27733 -0.02372 0.39728
 H304 H 0.33754 -0.08651 0.30336
 H305 H 0.33840 0.01807 0.33669
 H306 H 0.30418 -0.08625 0.33412
 C307 C 0.62219 -0.01196 0.72413
 C308 C 0.62231 0.01178 0.72388
 C309 C 0.63502 0.01841 0.70481
 N310 N 0.64251 -0.00051 0.69337
 C311 C 0.63483 -0.01913 0.70519
 C312 C 0.63806 0.04154 0.69749
 C313 C 0.65247 0.04828 0.67912
 C314 C 0.65273 0.07019 0.66929
 C315 C 0.66961 0.07000 0.65273
 C316 C 0.67921 0.04797 0.65288
 N317 N 0.66884 0.03496 0.66920
 C318 C 0.69775 0.04085 0.63885
 C319 C 0.70477 0.01759 0.63616
 C320 C 0.72387 0.01051 0.62370
 C321 C 0.72374 -0.01325 0.62389
 C322 C 0.70457 -0.01993 0.63646
 N323 N 0.69294 -0.00105 0.64379
 C324 C 0.69729 -0.04307 0.63950
 C325 C 0.67869 -0.04983 0.65364
 C326 C 0.66889 -0.07174 0.65378
 C327 C 0.65204 -0.07159 0.67036
 C328 C 0.65199 -0.04956 0.67995
 N329 N 0.66847 -0.03653 0.66981
 C330 C 0.63766 -0.04245 0.69829
 H331 H 0.61353 -0.02273 0.73667
 H332 H 0.61376 0.02289 0.73618
 H333 H 0.67405 -0.02038 0.67525
 H334 H 0.64196 0.08484 0.67365
 H335 H 0.67434 0.08448 0.64187
 H336 H 0.73643 0.02132 0.61511
 H337 H 0.73619 -0.02432 0.61548
 H338 H 0.64114 -0.08609 0.67492
 H339 H 0.67423 0.01880 0.67487
 H340 H 0.67346 -0.08638 0.64310
 C341 C 0.27080 0.98804 0.62870
 C342 C 0.27074 1.01179 0.62891
 C343 C 0.29020 1.01861 0.64100
 N344 N 0.30213 0.99978 0.64806
 C345 C 0.29027 0.98107 0.64069
 C346 C 0.29754 1.04179 0.64377
 C347 C 0.31650 1.04845 0.65754
 C348 C 0.32662 1.07024 0.65730
 C349 C 0.34364 1.07003 0.67370
 C350 C 0.34353 1.04811 0.68358
 N351 N 0.32678 1.03517 0.67376
 C352 C 0.35789 1.04107 0.70195
 C353 C 0.36068 1.01779 0.70903
 C354 C 0.37339 1.01066 0.72796
 C355 C 0.37327 0.98691 0.72783
 C356 C 0.36049 0.98025 0.70884
 N357 N 0.35294 0.99914 0.69732
 C358 C 0.35749 0.95713 0.70156
 C359 C 0.34310 0.95045 0.68316
 C360 C 0.34306 0.92867 0.67312
 C361 C 0.32616 0.92888 0.65656
 C362 C 0.31631 0.95079 0.65694
 N363 N 0.32657 0.96372 0.67337
 C364 C 0.29763 0.95788 0.64304
 H365 H 0.25812 0.97715 0.62042
 H366 H 0.25803 1.02280 0.62076
 H367 H 0.32102 0.97976 0.67918
 H368 H 0.32210 1.08485 0.64653
 H369 H 0.35476 1.08444 0.67798
 H370 H 0.38215 1.02147 0.74038
 H371 H 0.38191 0.97582 0.74012
 H372 H 0.32158 0.91449 0.64557
 H373 H 0.32107 1.01915 0.67949
 H374 H 0.35402 0.91408 0.67733
 C375 C 0.71039 0.98690 0.39144
 C376 C 0.71109 1.01065 0.39132
 C377 C 0.70001 1.01783 0.37141
 N378 N 0.69274 0.99921 0.35935
 C379 C 0.69889 0.98030 0.37163
 C380 C 0.69806 1.04111 0.36401
 C381 C 0.68522 1.04816 0.34455
 C382 C 0.68626 1.07000 0.33455
 C383 C 0.67032 1.07029 0.31707
 C384 C 0.65995 1.04864 0.31684
 N385 N 0.66901 1.03536 0.33374
 C386 C 0.64164 1.04225 0.30218
 C387 C 0.63376 1.01929 0.29930
 C388 C 0.61463 1.01301 0.28648
 C389 C 0.61365 0.98927 0.28690
 C390 C 0.63219 0.98181 0.29998
 N391 N 0.64456 1.00019 0.30736
 C392 C 0.63815 0.95838 0.30372
 C393 C 0.65619 0.95107 0.31831
 C394 C 0.66508 0.92876 0.31905
 C395 C 0.68138 0.92844 0.33621
 C396 C 0.68197 0.95054 0.34553
 N397 N 0.66645 0.96415 0.33462
 C398 C 0.69555 0.95714 0.36457
 H399 H 0.71772 0.97577 0.40452
 H400 H 0.71908 1.02140 0.40428
 H401 H 0.66127 0.98053 0.33978
 H402 H 0.69722 1.08432 0.33948
 H403 H 0.66662 1.08488 0.30596
 H404 H 0.60272 1.02431 0.27757
 H405 H 0.60088 0.97874 0.27830
 H406 H 0.69145 0.91353 0.34140
 H407 H 0.66263 1.01953 0.33927
 H408 H 0.66021 0.91417 0.30846
 O409 O 0.84681 0.81415 0.47857
 O410 O 0.81432 0.84539 0.52295
 O411 O 0.84727 0.81465 0.52319
 O412 O 0.81389 0.84495 0.47869
 O413 O 0.78791 0.81693 0.47922
 O414 O 0.82143 0.78654 0.52385
 O415 O 0.78834 0.81738 0.52361
 O416 O 0.82096 0.78603 0.47909
 Cu417 Cu 0.83324 0.83255 0.50079
 Cu418 Cu 0.80210 0.79881 0.50150
 C419 C 0.83945 0.79479 0.47140
 C420 C 0.79566 0.83688 0.53049
 C421 C 0.84007 0.79546 0.53098
 C422 C 0.79508 0.83628 0.47173
 O423 O 0.18520 0.15091 0.52233
 O424 O 0.15326 0.18255 0.47767
 O425 O 0.18500 0.15055 0.47768
 O426 O 0.15355 0.18302 0.52201
 O427 O 0.18052 0.21007 0.52163
 O428 O 0.21203 0.17751 0.47718
 O429 O 0.18020 0.20963 0.47717
 O430 O 0.21226 0.17785 0.52196
 Cu431 Cu 0.16659 0.16398 0.49997
 Cu432 Cu 0.19904 0.19644 0.49944
 C433 C 0.20414 0.15896 0.52964
 C434 C 0.16113 0.20158 0.47012
 C435 C 0.20384 0.15849 0.46998
 C436 C 0.16154 0.20218 0.52906
 O437 O 0.15304 0.81565 0.52102
 O438 O 0.18405 0.84813 0.47634
 O439 O 0.15245 0.81616 0.47655
 O440 O 0.18461 0.84781 0.52086
 O441 O 0.21175 0.82091 0.52039
 O442 O 0.17944 0.78910 0.47593
 O443 O 0.21115 0.82119 0.47573
 O444 O 0.18007 0.78864 0.52054
 Cu445 Cu 0.16582 0.83466 0.49877
 Cu446 Cu 0.19835 0.80223 0.49812
 C447 C 0.16117 0.79655 0.52814
 C448 C 0.20287 0.84022 0.46856
 C449 C 0.16040 0.79724 0.46885
 C450 C 0.20369 0.83986 0.52796
 O451 O 0.84791 0.18366 0.52280
 O452 O 0.81596 0.15251 0.47793
 O453 O 0.84819 0.18407 0.47824
 O454 O 0.81561 0.15225 0.52224
 O455 O 0.78903 0.17973 0.52227
 O456 O 0.82171 0.21164 0.47814
 O457 O 0.78937 0.17998 0.47785
 O458 O 0.82144 0.21123 0.52284
 Cu459 Cu 0.83463 0.16540 0.50029
 Cu460 Cu 0.80275 0.19848 0.50026
 C461 C 0.84018 0.20275 0.53031
 C462 C 0.79708 0.16075 0.47061
 C463 C 0.84058 0.20330 0.47089
 C464 C 0.79666 0.16042 0.52942
 O465 O 0.47743 0.84664 0.81633
 O466 O 0.52306 0.81619 0.84815
 O467 O 0.52189 0.84728 0.81560
 O468 O 0.47833 0.81547 0.84882
 O469 O 0.47827 0.78764 0.82277
 O470 O 0.52196 0.81955 0.78942
 O471 O 0.52313 0.78837 0.82209
 O472 O 0.47739 0.81890 0.79016
 Cu473 Cu 0.50017 0.83415 0.83490
 Cu474 Cu 0.50018 0.80075 0.80352
 C475 C 0.46996 0.83812 0.79770
 C476 C 0.53073 0.79710 0.84058
 C477 C 0.52902 0.83898 0.79675
 C478 C 0.47103 0.79614 0.84150
 O479 O 0.52385 0.18524 0.15267
 O480 O 0.48058 0.15262 0.18556
 O481 O 0.47938 0.18453 0.15374
 O482 O 0.52524 0.15335 0.18443
 O483 O 0.52553 0.18043 0.21125
 O484 O 0.47954 0.21176 0.18042
 O485 O 0.48075 0.17974 0.21235
 O486 O 0.52412 0.21243 0.17940
 Cu487 Cu 0.50222 0.16617 0.16644
 Cu488 Cu 0.50249 0.19881 0.19860
 C489 C 0.53105 0.20448 0.16032
 C490 C 0.47351 0.16055 0.20459
 C491 C 0.47198 0.20358 0.16167
 C492 C 0.53302 0.16151 0.20308
 O493 O 0.52126 0.15414 0.81323
 O494 O 0.47700 0.18546 0.84590
 O495 O 0.47674 0.15345 0.81427
 O496 O 0.52151 0.18624 0.84483
 O497 O 0.52046 0.21331 0.81794
 O498 O 0.47559 0.18047 0.78732
 O499 O 0.47584 0.21257 0.81904
 O500 O 0.52021 0.18112 0.78623
 Cu501 Cu 0.49925 0.16710 0.83227
 Cu502 Cu 0.49792 0.19961 0.79990
 C503 C 0.52797 0.16214 0.79408
 C504 C 0.46916 0.20444 0.83816
 C505 C 0.46882 0.16126 0.79551
 C506 C 0.52830 0.20546 0.83674
 O507 O 0.47834 0.81589 0.15171
 O508 O 0.52223 0.84778 0.18444
 O509 O 0.52309 0.81690 0.15177
 O510 O 0.47775 0.84683 0.18440
 O511 O 0.47830 0.81890 0.21043
 O512 O 0.52372 0.78890 0.17772
 O513 O 0.52288 0.81985 0.21049
 O514 O 0.47887 0.78788 0.17766
 Cu515 Cu 0.50028 0.83462 0.16542
 Cu516 Cu 0.50099 0.80100 0.19665
 C517 C 0.47129 0.79646 0.15906
 C518 C 0.52972 0.83938 0.20315
 C519 C 0.53099 0.79781 0.15917
 C520 C 0.47064 0.83813 0.20310
 O521 O 0.84817 0.52377 0.81511
 O522 O 0.81621 0.47873 0.84645
 O523 O 0.84800 0.47894 0.81473
 O524 O 0.81653 0.52354 0.84698
 O525 O 0.78942 0.52408 0.82028
 O526 O 0.82106 0.47936 0.78787
 O527 O 0.78918 0.47916 0.81968
 O528 O 0.82116 0.52430 0.78832
 Cu529 Cu 0.83495 0.50119 0.83351
 Cu530 Cu 0.80247 0.50177 0.80132
 C531 C 0.84022 0.53143 0.79628
 C532 C 0.79716 0.47157 0.83853
 C533 C 0.84004 0.47183 0.79573
 C534 C 0.79753 0.53111 0.83926
 O535 O 0.15154 0.52225 0.18363
 O536 O 0.18398 0.47754 0.15247
 O537 O 0.15185 0.47725 0.18373
 O538 O 0.18361 0.52231 0.15230
 O539 O 0.21032 0.52263 0.17939
 O540 O 0.17843 0.47743 0.21094
 O541 O 0.21068 0.47773 0.17958
 O542 O 0.17813 0.52257 0.21083
 Cu543 Cu 0.16502 0.49982 0.16534
 Cu544 Cu 0.19705 0.50012 0.19798
 C545 C 0.15927 0.52989 0.20252
 C546 C 0.20295 0.47031 0.16059
 C547 C 0.15970 0.46980 0.20268
 C548 C 0.20246 0.52985 0.16035
 O549 O 0.84814 0.47545 0.18393
 O550 O 0.81702 0.52086 0.15222
 O551 O 0.84799 0.52020 0.18467
 O552 O 0.81700 0.47583 0.15163
 O553 O 0.78944 0.47532 0.17782
 O554 O 0.82049 0.51981 0.21093
 O555 O 0.78943 0.52047 0.17838
 O556 O 0.82067 0.47496 0.21021
 Cu557 Cu 0.83527 0.49814 0.16542
 Cu558 Cu 0.80217 0.49759 0.19694
 C559 C 0.83985 0.46777 0.20258
 C560 C 0.79795 0.52827 0.15986
 C561 C 0.83965 0.52725 0.20353
 C562 C 0.79796 0.46815 0.15908
 O563 O 0.18343 0.52091 0.84956
 O564 O 0.15202 0.47658 0.81685
 O565 O 0.18336 0.47603 0.84887
 O566 O 0.15204 0.52154 0.81754
 O567 O 0.17921 0.52203 0.79095
 O568 O 0.21066 0.47638 0.82240
 O569 O 0.17920 0.47692 0.79027
 O570 O 0.21072 0.52140 0.82309
 Cu571 Cu 0.16496 0.49873 0.83586
 Cu572 Cu 0.19769 0.49923 0.80398
 C573 C 0.20247 0.52849 0.84199
 C574 C 0.16022 0.46933 0.79800
 C575 C 0.20237 0.46865 0.84105
 C576 C 0.16022 0.52937 0.79891
 C577 C 0.24110 0.42655 0.12071
 C578 C 0.25303 0.43652 0.10193
 C579 C 0.26547 0.42211 0.08654
 C580 C 0.26600 0.39784 0.09007
 C581 C 0.25451 0.38793 0.10913
 C582 C 0.24199 0.40233 0.12449
 C583 C 0.23050 0.39203 0.14333
 C584 C 0.23140 0.36817 0.14693
 C585 C 0.24367 0.35409 0.13193
 C586 C 0.25512 0.36376 0.11321
 C587 C 0.27710 0.43245 0.06778
 C588 C 0.27654 0.45635 0.06439
 C589 C 0.26445 0.47045 0.07949
 C590 C 0.25276 0.46075 0.09804
 C591 C 0.27791 0.38313 0.07375
 C592 C 0.28766 0.37139 0.05967
 C593 C 0.22754 0.44127 0.13572
 C594 C 0.21626 0.45413 0.14751
 H595 H 0.22078 0.40229 0.15547
 H596 H 0.22253 0.36056 0.16144
 H597 H 0.24432 0.33556 0.13481
 H598 H 0.26447 0.35212 0.10203
 H599 H 0.28678 0.42223 0.05558
 H600 H 0.28557 0.46397 0.04998
 H601 H 0.26414 0.48901 0.07683
 H602 H 0.24361 0.47247 0.10930
 C603 C 0.76326 0.57607 0.12110
 C604 C 0.73902 0.57825 0.12274
 C605 C 0.72699 0.59320 0.10745
 C606 C 0.73927 0.60588 0.09062
 C607 C 0.76357 0.60422 0.08943
 C608 C 0.77560 0.58927 0.10470
 C609 C 0.79988 0.58776 0.10305
 C610 C 0.81193 0.60067 0.08678
 C611 C 0.80017 0.61529 0.07184
 C612 C 0.77627 0.61712 0.07307
 C613 C 0.70275 0.59495 0.10929
 C614 C 0.69073 0.58232 0.12580
 C615 C 0.70249 0.56772 0.14076
 C616 C 0.72636 0.56562 0.13932
 C617 C 0.72691 0.61991 0.07398
 C618 C 0.71687 0.63121 0.05970
 C619 C 0.77540 0.55954 0.13554
 C620 C 0.78562 0.54546 0.14697
 H621 H 0.80981 0.57667 0.11432
 H622 H 0.83050 0.59932 0.08576
 H623 H 0.80961 0.62529 0.05924
 H624 H 0.76791 0.62878 0.06112
 H625 H 0.69285 0.60609 0.09805
 H626 H 0.67219 0.58389 0.12699
 H627 H 0.69307 0.55795 0.15355
 H628 H 0.73476 0.55407 0.15135
 C629 C 0.75859 0.42822 0.87850
 C630 C 0.75941 0.40379 0.87656
 C631 C 0.74638 0.38976 0.89186
 C632 C 0.73266 0.40027 0.90903
 C633 C 0.73154 0.42472 0.91072
 C634 C 0.74452 0.43874 0.89540
 C635 C 0.74313 0.46315 0.89745
 C636 C 0.72931 0.47341 0.91414
 C637 C 0.71667 0.45969 0.92916
 C638 C 0.71770 0.43563 0.92756
 C639 C 0.74750 0.36537 0.88964
 C640 C 0.76111 0.35513 0.87277
 C641 C 0.77387 0.36884 0.85781
 C642 C 0.77310 0.39291 0.85961
 C643 C 0.72013 0.38605 0.92535
 C644 C 0.70982 0.37477 0.93942
 C645 C 0.77251 0.44265 0.86353
 C646 C 0.78392 0.45539 0.85171
 H647 H 0.75263 0.47459 0.88617
 H648 H 0.72837 0.49209 0.91538
 H649 H 0.70596 0.46774 0.94211
 H650 H 0.70749 0.42572 0.93961
 H651 H 0.73786 0.35400 0.90087
 H652 H 0.76177 0.33644 0.87129
 H653 H 0.78442 0.36079 0.84474
 H654 H 0.78329 0.40286 0.84758
 C655 C 0.23838 0.57316 0.88300
 C656 C 0.24661 0.59485 0.87513
 C657 C 0.25876 0.60970 0.89038
 C658 C 0.26259 0.60276 0.91338
 C659 C 0.25454 0.58098 0.92120
 C660 C 0.24238 0.56615 0.90598
 C661 C 0.23444 0.54448 0.91423
 C662 C 0.23841 0.53767 0.93684
 C663 C 0.25033 0.55215 0.95172
 C664 C 0.25836 0.57356 0.94408
 C665 C 0.26682 0.63129 0.88214
 C666 C 0.26297 0.63805 0.85948
 C667 C 0.25107 0.62355 0.84458
 C668 C 0.24294 0.60218 0.85222
 C669 C 0.27457 0.61800 0.92918
 C670 C 0.28433 0.63016 0.94290
 C671 C 0.22575 0.55798 0.86762
 C672 C 0.21515 0.54484 0.85550
 H673 H 0.22510 0.53258 0.90333
 H674 H 0.23222 0.52104 0.94285
 H675 H 0.25340 0.54677 0.96927
 H676 H 0.26761 0.58415 0.95629
 H677 H 0.27618 0.64314 0.89309
 H678 H 0.26926 0.65463 0.85345
 H679 H 0.24813 0.62889 0.82700
 H680 H 0.23379 0.59148 0.84001
 C681 C 0.11998 0.23857 0.42646
 C682 C 0.09737 0.24355 0.43416
 C683 C 0.08192 0.25593 0.41971
 C684 C 0.08917 0.26326 0.39765
 C685 C 0.11185 0.25854 0.39007
 C686 C 0.12730 0.24614 0.40452
 C687 C 0.14986 0.24155 0.39655
 C688 C 0.15697 0.24903 0.37492
 C689 C 0.14187 0.26117 0.36081
 C690 C 0.11954 0.26592 0.36820
 C691 C 0.05939 0.26065 0.42776
 C692 C 0.05231 0.25331 0.44944
 C693 C 0.06741 0.24119 0.46356
 C694 C 0.08970 0.23636 0.45612
 C695 C 0.07309 0.27533 0.38275
 C696 C 0.05918 0.28513 0.37081
 C697 C 0.13550 0.22552 0.44117
 C698 C 0.14767 0.21459 0.45399
 H699 H 0.16222 0.23217 0.40693
 H700 H 0.17429 0.24538 0.36909
 H701 H 0.14748 0.26696 0.34403
 H702 H 0.10841 0.27545 0.35664
 H703 H 0.04702 0.27007 0.41745
 H704 H 0.03502 0.25706 0.45530
 H705 H 0.06182 0.23551 0.48037
 H706 H 0.10080 0.22692 0.46778
 C707 C 0.12181 0.75840 0.57240
 C708 C 0.10425 0.74452 0.56264
 C709 C 0.08902 0.73195 0.57712
 C710 C 0.09140 0.73337 0.60127
 C711 C 0.10925 0.74685 0.61102
 C712 C 0.12451 0.75942 0.59653
 C713 C 0.14214 0.77288 0.60666
 C714 C 0.14466 0.77388 0.63044
 C715 C 0.12975 0.76159 0.64460
 C716 C 0.11220 0.74821 0.63510
 C717 C 0.07154 0.71827 0.56695
 C718 C 0.06917 0.71706 0.54318
 C719 C 0.08405 0.72935 0.52902
 C720 C 0.10142 0.74295 0.53854
 C721 C 0.07503 0.72147 0.61595
 C722 C 0.06084 0.71167 0.62752
 C723 C 0.13661 0.77203 0.55751
 C724 C 0.14823 0.78329 0.54448
 H725 H 0.15417 0.78271 0.59634
 H726 H 0.15825 0.78425 0.63791
 H727 H 0.13178 0.76242 0.66306
 H728 H 0.10104 0.73892 0.64680
 H729 H 0.05958 0.70831 0.57722
 H730 H 0.05571 0.70650 0.53571
 H731 H 0.08214 0.72835 0.51056
 H732 H 0.11258 0.75215 0.52679
 C733 C 0.87962 0.75997 0.42525
 C734 C 0.90174 0.76906 0.42035
 C735 C 0.91709 0.75653 0.40599
 C736 C 0.91026 0.73497 0.39665
 C737 C 0.88793 0.72619 0.40102
 C738 C 0.87256 0.73873 0.41538
 C739 C 0.85038 0.72954 0.41964
 C740 C 0.84357 0.70856 0.40996
 C741 C 0.85859 0.69630 0.39592
 C742 C 0.88055 0.70493 0.39145
 C743 C 0.93914 0.76592 0.40141
 C744 C 0.94586 0.78705 0.41082
 C745 C 0.93087 0.79928 0.42490
 C746 C 0.90904 0.79048 0.42966
 C747 C 0.92655 0.72153 0.38327
 C748 C 0.94063 0.71059 0.37262
 C749 C 0.86457 0.77213 0.44109
 C750 C 0.85272 0.78239 0.45469
 H751 H 0.83808 0.73848 0.43042
 H752 H 0.82653 0.70179 0.41338
 H753 H 0.85321 0.68002 0.38844
 H754 H 0.89163 0.69480 0.38039
 H755 H 0.95139 0.75712 0.39048
 H756 H 0.96279 0.79396 0.40713
 H757 H 0.93616 0.81570 0.43215
 H758 H 0.89798 0.80068 0.44067
 C759 C 0.87972 0.23799 0.57670
 C760 C 0.87528 0.26155 0.58184
 C761 C 0.89072 0.27409 0.59613
 C762 C 0.91048 0.26299 0.60521
 C763 C 0.91458 0.23926 0.60059
 C764 C 0.89917 0.22673 0.58629
 C765 C 0.90374 0.20308 0.58176
 C766 C 0.92299 0.19212 0.59110
 C767 C 0.93806 0.20437 0.60508
 C768 C 0.93399 0.22767 0.60983
 C769 C 0.88604 0.29767 0.60085
 C770 C 0.86662 0.30854 0.59177
 C771 C 0.85151 0.29628 0.57782
 C772 C 0.85572 0.27305 0.57284
 C773 C 0.92705 0.27609 0.61859
 C774 C 0.94134 0.28669 0.62932
 C775 C 0.86495 0.22560 0.56078
 C776 C 0.85327 0.21521 0.54711
 H777 H 0.89250 0.19279 0.57102
 H778 H 0.92621 0.17402 0.58747
 H779 H 0.95298 0.19578 0.61230
 H780 H 0.94619 0.23644 0.62085
 H781 H 0.89728 0.30792 0.61161
 H782 H 0.86328 0.32659 0.59558
 H783 H 0.83646 0.30481 0.57081
 H784 H 0.84346 0.26421 0.56193
 C785 C 0.43052 0.11993 0.24294
 C786 C 0.40625 0.12217 0.24211
 C787 C 0.39214 0.10662 0.25479
 C788 C 0.40240 0.08894 0.26823
 C789 C 0.42668 0.08700 0.26943
 C790 C 0.44078 0.10252 0.25674
 C791 C 0.46502 0.10014 0.25811
 C792 C 0.47503 0.08292 0.27164
 C793 C 0.46124 0.06776 0.28406
 C794 C 0.43734 0.06970 0.28305
 C795 C 0.36792 0.10911 0.25361
 C796 C 0.35792 0.12649 0.24029
 C797 C 0.37171 0.14169 0.22788
 C798 C 0.39562 0.13963 0.22871
 C799 C 0.38808 0.07233 0.28033
 C800 C 0.37664 0.05806 0.29025
 C801 C 0.44502 0.13509 0.22926
 C802 C 0.45766 0.14708 0.21793
 H803 H 0.47650 0.11153 0.24880
 H804 H 0.49360 0.08136 0.27249
 H805 H 0.46910 0.05443 0.29457
 H806 H 0.42736 0.05753 0.29309
 H807 H 0.35649 0.09771 0.26297
 H808 H 0.33936 0.12817 0.23959
 H809 H 0.36385 0.15516 0.21756
 H810 H 0.40564 0.15187 0.21879
 C811 C 0.57054 0.12104 0.75594
 C812 C 0.59298 0.12772 0.74915
 C813 C 0.60700 0.11207 0.73652
 C814 C 0.59850 0.08982 0.73083
 C815 C 0.57593 0.08326 0.73734
 C816 C 0.56190 0.09891 0.74991
 C817 C 0.53940 0.09192 0.75627
 C818 C 0.53105 0.07008 0.75043
 C819 C 0.54478 0.05478 0.73813
 C820 C 0.56696 0.06119 0.73161
 C821 C 0.62938 0.11911 0.72993
 C822 C 0.63769 0.14100 0.73567
 C823 C 0.62399 0.15629 0.74804
 C824 C 0.60187 0.14982 0.75475
 C825 C 0.61302 0.07344 0.71872
 C826 C 0.62466 0.05926 0.70893
 C827 C 0.55632 0.13664 0.76939
 C828 C 0.54382 0.14880 0.78066
 H829 H 0.52801 0.10322 0.76579
 H830 H 0.51383 0.06502 0.75548
 H831 H 0.53821 0.03784 0.73361
 H832 H 0.57695 0.04867 0.72202
 H833 H 0.64066 0.10781 0.72026
 H834 H 0.65485 0.14612 0.73048
 H835 H 0.63052 0.17327 0.75245
 H836 H 0.59183 0.16231 0.76433
 C837 C 0.42578 0.87762 0.75949
 C838 C 0.40154 0.87593 0.76141
 C839 C 0.38718 0.89138 0.74886
 C840 C 0.39716 0.90846 0.73452
 C841 C 0.42140 0.90983 0.73221
 C842 C 0.43575 0.89434 0.74471
 C843 C 0.45995 0.89608 0.74215
 C844 C 0.46967 0.91262 0.72766
 C845 C 0.45563 0.92782 0.71550
 C846 C 0.43177 0.92653 0.71769
 C847 C 0.36299 0.88943 0.75112
 C848 C 0.35327 0.87267 0.76537
 C849 C 0.36731 0.85757 0.77765
 C850 C 0.39119 0.85910 0.77577
 C851 C 0.38262 0.92509 0.72265
 C852 C 0.37096 0.93938 0.71298
 C853 C 0.44059 0.86273 0.77317
 C854 C 0.45356 0.85105 0.78447
 H855 H 0.47162 0.88466 0.75123
 H856 H 0.48819 0.91363 0.72582
 H857 H 0.46327 0.94065 0.70429
 H858 H 0.42158 0.93870 0.70784
 H859 H 0.35137 0.90077 0.74188
 H860 H 0.33473 0.87140 0.76689
 H861 H 0.35967 0.84458 0.78870
 H862 H 0.40142 0.84696 0.78562
 C863 C 0.57205 0.87994 0.24219
 C864 C 0.59597 0.87578 0.24444
 C865 C 0.60982 0.89115 0.25761
 C866 C 0.59963 0.91053 0.26850
 C867 C 0.57562 0.91445 0.26657
 C868 C 0.56181 0.89918 0.25330
 C869 C 0.53789 0.90367 0.25138
 C870 C 0.52793 0.92269 0.26224
 C871 C 0.54140 0.93750 0.27537
 C872 C 0.56497 0.93350 0.27760
 C873 C 0.63372 0.88672 0.25950
 C874 C 0.64366 0.86764 0.24872
 C875 C 0.63013 0.85261 0.23587
 C876 C 0.60654 0.85656 0.23369
 C877 C 0.61382 0.92683 0.28114
 C878 C 0.62515 0.94088 0.29147
 C879 C 0.55790 0.86474 0.22822
 C880 C 0.54547 0.85275 0.21668
 H881 H 0.52664 0.89259 0.24146
 H882 H 0.50965 0.92593 0.26047
 H883 H 0.53356 0.95219 0.28386
 H884 H 0.57469 0.94547 0.28807
 H885 H 0.64494 0.89792 0.26931
 H886 H 0.66197 0.86450 0.25036
 H887 H 0.63794 0.83781 0.22754
 H888 H 0.59671 0.84439 0.22352
 C889 C 0.42634 0.24152 0.87991
 C890 C 0.40260 0.24464 0.87528
 C891 C 0.38859 0.25707 0.89105
 C892 C 0.39843 0.26635 0.91129
 C893 C 0.42224 0.26346 0.91577
 C894 C 0.43622 0.25096 0.90007
 C895 C 0.45995 0.24811 0.90504
 C896 C 0.46954 0.25730 0.92497
 C897 C 0.45589 0.26963 0.94027
 C898 C 0.43251 0.27275 0.93581
 C899 C 0.36487 0.25984 0.88616
 C900 C 0.35528 0.25066 0.86621
 C901 C 0.36899 0.23855 0.85078
 C902 C 0.39240 0.23551 0.85518
 C903 C 0.38411 0.27849 0.92777
 C904 C 0.37270 0.28845 0.94197
 C905 C 0.44065 0.22832 0.86422
 C906 C 0.45323 0.21736 0.85187
 H907 H 0.47133 0.23874 0.89365
 H908 H 0.48768 0.25486 0.92856
 H909 H 0.46344 0.27680 0.95570
 H910 H 0.42264 0.28251 0.94821
 H911 H 0.35352 0.26910 0.89766
 H912 H 0.33711 0.25295 0.86272
 H913 H 0.36145 0.23145 0.83531
 H914 H 0.40237 0.22595 0.84268
 C915 C 0.57850 0.76264 0.87939
 C916 C 0.58023 0.73819 0.87825
 C917 C 0.59514 0.72616 0.89354
 C918 C 0.60826 0.73865 0.90985
 C919 C 0.60705 0.76314 0.91053
 C920 C 0.59212 0.77517 0.89526
 C921 C 0.59105 0.79964 0.89641
 C922 C 0.60437 0.81189 0.91218
 C923 C 0.61897 0.80012 0.92710
 C924 C 0.62036 0.77603 0.92637
 C925 C 0.59641 0.70171 0.89222
 C926 C 0.58337 0.68949 0.87622
 C927 C 0.56880 0.70125 0.86126
 C928 C 0.56716 0.72532 0.86220
 C929 C 0.62229 0.72631 0.92650
 C930 C 0.63356 0.71621 0.94074
 C931 C 0.56202 0.77480 0.86497
 C932 C 0.54795 0.78496 0.85352
 H933 H 0.57999 0.80957 0.88512
 H934 H 0.60335 0.83060 0.91280
 H935 H 0.62929 0.80971 0.93931
 H936 H 0.63202 0.76767 0.93828
 H937 H 0.60751 0.69179 0.90348
 H938 H 0.58457 0.67079 0.87543
 H939 H 0.55870 0.69168 0.84886
 H940 H 0.55562 0.73370 0.85018
 C941 C 0.42644 0.76033 0.11849
 C942 C 0.40477 0.75250 0.12647
 C943 C 0.38978 0.74031 0.11141
 C944 C 0.39656 0.73605 0.08846
 C945 C 0.41834 0.74368 0.08054
 C946 C 0.43330 0.75587 0.09558
 C947 C 0.45494 0.76340 0.08721
 C948 C 0.46161 0.75900 0.06466
 C949 C 0.44699 0.74704 0.04997
 C950 C 0.42560 0.73942 0.05772
 C951 C 0.36820 0.73266 0.11976
 C952 C 0.36160 0.73694 0.14236
 C953 C 0.37623 0.74888 0.15708
 C954 C 0.39759 0.75661 0.14932
 C955 C 0.38116 0.72411 0.07282
 C956 C 0.36890 0.71442 0.05916
 C957 C 0.44174 0.77304 0.13366
 C958 C 0.45494 0.78370 0.14564
 H959 H 0.46695 0.77275 0.09797
 H960 H 0.47822 0.76488 0.05856
 H961 H 0.45225 0.74363 0.03246
 H962 H 0.41491 0.73011 0.04565
 H963 H 0.35626 0.72329 0.10895
 H964 H 0.34503 0.73097 0.14848
 H965 H 0.37101 0.75216 0.17462
 H966 H 0.40840 0.76581 0.16140
 C967 C 0.57302 0.24324 0.11909
 C968 C 0.56240 0.25964 0.10437
 C969 C 0.57596 0.27241 0.08848
 C970 C 0.60006 0.26880 0.08748
 C971 C 0.61074 0.25279 0.10255
 C972 C 0.59717 0.23995 0.11839
 C973 C 0.60820 0.22394 0.13318
 C974 C 0.63198 0.22074 0.13238
 C975 C 0.64526 0.23332 0.11691
 C976 C 0.63485 0.24918 0.10211
 C977 C 0.56494 0.28857 0.07382
 C978 C 0.54122 0.29211 0.07492
 C979 C 0.52798 0.27971 0.09053
 C980 C 0.53833 0.26358 0.10508
 C981 C 0.61372 0.28118 0.07060
 C982 C 0.62474 0.29137 0.05626
 C983 C 0.55893 0.22937 0.13443
 C984 C 0.54660 0.21791 0.14661
 H985 H 0.59860 0.21380 0.14553
 H986 H 0.64015 0.20845 0.14384
 H987 H 0.66372 0.23078 0.11636
 H988 H 0.64589 0.25857 0.09039
 H989 H 0.57451 0.29869 0.06142
 H990 H 0.53309 0.30458 0.06363
 H991 H 0.50958 0.28261 0.09141
 H992 H 0.52727 0.25435 0.11691
 C993 C 0.23950 0.12036 0.57692
 C994 C 0.22720 0.10474 0.59111
 C995 C 0.23935 0.08941 0.60593
 C996 C 0.26373 0.08979 0.60646
 C997 C 0.27600 0.10588 0.59278
 C998 C 0.26385 0.12122 0.57797
 C999 C 0.27650 0.13704 0.56434
 C1000 C 0.30048 0.13770 0.56531
 C1001 C 0.31236 0.12269 0.57978
 C1002 C 0.30035 0.10691 0.59338
 C1003 C 0.22669 0.07382 0.61981
 C1004 C 0.20270 0.07339 0.61909
 C1005 C 0.19082 0.08837 0.60461
 C1006 C 0.20284 0.10390 0.59074
 C1007 C 0.27613 0.07301 0.62035
 C1008 C 0.28624 0.05861 0.63150
 C1009 C 0.22715 0.13476 0.56055
 C1010 C 0.21673 0.14614 0.54661
 H1011 H 0.26802 0.14908 0.55285
 H1012 H 0.30988 0.14992 0.55479
 H1013 H 0.33098 0.12326 0.58047
 H1014 H 0.31034 0.09560 0.60437
 H1015 H 0.23515 0.06187 0.63141
 H1016 H 0.19329 0.06136 0.62984
 H1017 H 0.17219 0.08798 0.60412
 H1018 H 0.19282 0.11524 0.57980
 C1019 C 0.75828 0.12013 0.42818
 C1020 C 0.74336 0.10397 0.43886
 C1021 C 0.73046 0.08822 0.42525
 C1022 C 0.73251 0.08873 0.40103
 C1023 C 0.74708 0.10517 0.39033
 C1024 C 0.76001 0.12093 0.40395
 C1025 C 0.77453 0.13714 0.39288
 C1026 C 0.77622 0.13779 0.36902
 C1027 C 0.76358 0.12239 0.35570
 C1028 C 0.74915 0.10622 0.36614
 C1029 C 0.71576 0.07214 0.43633
 C1030 C 0.71382 0.07169 0.46017
 C1031 C 0.72639 0.08713 0.47348
 C1032 C 0.74105 0.10309 0.46306
 C1033 C 0.72001 0.07198 0.38725
 C1034 C 0.70971 0.05770 0.37618
 C1035 C 0.77222 0.13542 0.44225
 C1036 C 0.78369 0.14744 0.45471
 H1037 H 0.78468 0.14948 0.40253
 H1038 H 0.78740 0.15032 0.36083
 H1039 H 0.76496 0.12298 0.33718
 H1040 H 0.73966 0.09461 0.35506
 H1041 H 0.70557 0.05982 0.42672
 H1042 H 0.70247 0.05931 0.46835
 H1043 H 0.72474 0.08678 0.49199
 H1044 H 0.75045 0.11474 0.47418
 C1045 C 0.75706 0.87779 0.57279
 C1046 C 0.75025 0.87108 0.59516
 C1047 C 0.73735 0.88664 0.60903
 C1048 C 0.73140 0.90881 0.60045
 C1049 C 0.73793 0.91539 0.57794
 C1050 C 0.75077 0.89983 0.56406
 C1051 C 0.75712 0.90683 0.54162
 C1052 C 0.75103 0.92859 0.53318
 C1053 C 0.73847 0.94381 0.54676
 C1054 C 0.73194 0.93738 0.56889
 C1055 C 0.73074 0.87958 0.63135
 C1056 C 0.73672 0.85776 0.63974
 C1057 C 0.74936 0.84256 0.62619
 C1058 C 0.75610 0.84906 0.60413
 C1059 C 0.71900 0.92511 0.61481
 C1060 C 0.70899 0.93924 0.62630
 C1061 C 0.77073 0.86227 0.55870
 C1062 C 0.78215 0.85016 0.54629
 H1063 H 0.76684 0.89561 0.53034
 H1064 H 0.75606 0.93366 0.51600
 H1065 H 0.73374 0.96068 0.54012
 H1066 H 0.72215 0.94982 0.57876
 H1067 H 0.72087 0.89080 0.64251
 H1068 H 0.73152 0.85263 0.65685
 H1069 H 0.75396 0.82564 0.63279
 H1070 H 0.76589 0.83665 0.59421
 C1071 C 0.23783 0.87987 0.42195
 C1072 C 0.22912 0.90220 0.41676
 C1073 C 0.24186 0.91732 0.40228
 C1074 C 0.26327 0.91005 0.39315
 C1075 C 0.27164 0.88748 0.39776
 C1076 C 0.25887 0.87233 0.41221
 C1077 C 0.26767 0.84991 0.41672
 C1078 C 0.28846 0.84264 0.40720
 C1079 C 0.30093 0.85745 0.39306
 C1080 C 0.29271 0.87965 0.38834
 C1081 C 0.23285 0.93960 0.39742
 C1082 C 0.21190 0.94676 0.40666
 C1083 C 0.19947 0.93200 0.42086
 C1084 C 0.20789 0.90996 0.42591
 C1085 C 0.27708 0.92622 0.37994
 C1086 C 0.28837 0.94028 0.36956
 C1087 C 0.22552 0.86509 0.43797
 C1088 C 0.21522 0.85339 0.45171
 H1089 H 0.25855 0.83777 0.42759
 H1090 H 0.29493 0.82542 0.41080
 H1091 H 0.31707 0.85172 0.38569
 H1092 H 0.30298 0.89054 0.37720
 H1093 H 0.24181 0.95166 0.38636
 H1094 H 0.20527 0.96386 0.40275
 H1095 H 0.18320 0.93764 0.42800
 H1096 H 0.19755 0.89909 0.43700
 C1097 C 0.12151 0.42287 0.76171
 C1098 C 0.10182 0.41323 0.77242
 C1099 C 0.08664 0.39888 0.75962
 C1100 C 0.09121 0.39428 0.73619
 C1101 C 0.11130 0.40328 0.72570
 C1102 C 0.12649 0.41763 0.73850
 C1103 C 0.14635 0.42660 0.72759
 C1104 C 0.15110 0.42150 0.70469
 C1105 C 0.13625 0.40745 0.69219
 C1106 C 0.11654 0.39841 0.70248
 C1107 C 0.06699 0.38957 0.77066
 C1108 C 0.06244 0.39432 0.79366
 C1109 C 0.07727 0.40837 0.80616
 C1110 C 0.09675 0.41776 0.79576
 C1111 C 0.07471 0.38119 0.72272
 C1112 C 0.06041 0.37079 0.71182
 C1113 C 0.13602 0.43889 0.77436
 C1114 C 0.14744 0.45259 0.78505
 H1115 H 0.15843 0.43756 0.73663
 H1116 H 0.16638 0.42847 0.69661
 H1117 H 0.14002 0.40353 0.67441
 H1118 H 0.10553 0.38752 0.69208
 H1119 H 0.05499 0.37845 0.76169
 H1120 H 0.04734 0.38704 0.80182
 H1121 H 0.07367 0.41200 0.82403
 H1122 H 0.10779 0.42854 0.80622
 C1123 C 0.11923 0.57617 0.23754
 C1124 C 0.12645 0.58598 0.25861
 C1125 C 0.11109 0.60022 0.27134
 C1126 C 0.08863 0.60455 0.26291
 C1127 C 0.08166 0.59533 0.24149
 C1128 C 0.09700 0.58109 0.22877
 C1129 C 0.08956 0.57190 0.20750
 C1130 C 0.06761 0.57667 0.19902
 C1131 C 0.05262 0.59062 0.21145
 C1132 C 0.05947 0.59989 0.23244
 C1133 C 0.11862 0.60972 0.29243
 C1134 C 0.14071 0.60528 0.30072
 C1135 C 0.15572 0.59134 0.28829
 C1136 C 0.14876 0.58174 0.26747
 C1137 C 0.07233 0.61766 0.27658
 C1138 C 0.05821 0.62804 0.28773
 C1139 C 0.13423 0.56033 0.22525
 C1140 C 0.14604 0.54668 0.21494
 H1141 H 0.10061 0.56100 0.19716
 H1142 H 0.06222 0.56951 0.18272
 H1143 H 0.03560 0.59430 0.20479
 H1144 H 0.04722 0.61072 0.24141
 H1145 H 0.10756 0.62070 0.30268
 H1146 H 0.14620 0.61270 0.31688
 H1147 H 0.17286 0.58794 0.29481
 H1148 H 0.16105 0.57104 0.25839
 C1149 C 0.87934 0.42299 0.24021
 C1150 C 0.89066 0.43173 0.25993
 C1151 C 0.90625 0.41740 0.27231
 C1152 C 0.91044 0.39442 0.26491
 C1153 C 0.89870 0.38551 0.24553
 C1154 C 0.88310 0.39984 0.23314
 C1155 C 0.87168 0.39060 0.21374
 C1156 C 0.87554 0.36784 0.20678
 C1157 C 0.89079 0.35382 0.21889
 C1158 C 0.90230 0.36247 0.23805
 C1159 C 0.91748 0.42657 0.29188
 C1160 C 0.91337 0.44923 0.29903
 C1161 C 0.89810 0.46323 0.28695
 C1162 C 0.88686 0.45469 0.26759
 C1163 C 0.92730 0.38024 0.27684
 C1164 C 0.94164 0.36877 0.28664
 C1165 C 0.86458 0.43815 0.22677
 C1166 C 0.85290 0.45131 0.21565
 H1167 H 0.85963 0.40083 0.20380
 H1168 H 0.86665 0.36104 0.19191
 H1169 H 0.89373 0.33615 0.21341
 H1170 H 0.91397 0.35090 0.24694
 H1171 H 0.92947 0.41634 0.30187
 H1172 H 0.92207 0.45595 0.31405
 H1173 H 0.89492 0.48080 0.29262
 H1174 H 0.87514 0.46627 0.25877
 C1175 C 0.88053 0.57520 0.75851
 C1176 C 0.88070 0.59948 0.76191
 C1177 C 0.89629 0.61358 0.74931
 C1178 C 0.91166 0.60330 0.73344
 C1179 C 0.91116 0.57907 0.72969
 C1180 C 0.89552 0.56498 0.74222
 C1181 C 0.89534 0.54079 0.73816
 C1182 C 0.91016 0.53083 0.72216
 C1183 C 0.92554 0.54460 0.71000
 C1184 C 0.92613 0.56844 0.71366
 C1185 C 0.89620 0.63781 0.75303
 C1186 C 0.88112 0.64782 0.76877
 C1187 C 0.86588 0.63402 0.78111
 C1188 C 0.86560 0.61011 0.77779
 C1189 C 0.92840 0.61746 0.72139
 C1190 C 0.94277 0.62872 0.71145
 C1191 C 0.86548 0.56055 0.77213
 C1192 C 0.85357 0.54769 0.78330
 H1193 H 0.88371 0.52933 0.74720
 H1194 H 0.90968 0.51233 0.71917
 H1195 H 0.93705 0.53677 0.69762
 H1196 H 0.93836 0.57842 0.70372
 H1197 H 0.90771 0.64925 0.74381
 H1198 H 0.88125 0.66638 0.77139
 H1199 H 0.85420 0.64189 0.79331
 H1200 H 0.85343 0.60009 0.78775
 C1201 C 0.76085 0.57456 0.88083
 C1202 C 0.75492 0.56598 0.90285
 C1203 C 0.74283 0.58037 0.91854
 C1204 C 0.73669 0.60323 0.91212
 C1205 C 0.74231 0.61168 0.88999
 C1206 C 0.75446 0.59731 0.87431
 C1207 C 0.75998 0.60617 0.85233
 C1208 C 0.75365 0.62858 0.84600
 C1209 C 0.74175 0.64262 0.86132
 C1210 C 0.73610 0.63436 0.88310
 C1211 C 0.73718 0.57144 0.94049
 C1212 C 0.74330 0.54896 0.94675
 C1213 C 0.75512 0.53489 0.93142
 C1214 C 0.76088 0.54319 0.90969
 C1215 C 0.72493 0.61805 0.92845
 C1216 C 0.71535 0.63001 0.94247
 C1217 C 0.77377 0.55997 0.86515
 C1218 C 0.78461 0.54721 0.85285
 H1219 H 0.76920 0.59588 0.83982
 H1220 H 0.75800 0.63509 0.82911
 H1221 H 0.73686 0.66001 0.85631
 H1222 H 0.72680 0.64591 0.89442
 H1223 H 0.72797 0.58169 0.95303
 H1224 H 0.73885 0.54242 0.96360
 H1225 H 0.75986 0.51743 0.93637
 H1226 H 0.77003 0.53154 0.89837
 C1227 C 0.23774 0.42182 0.88028
 C1228 C 0.26092 0.41602 0.87537
 C1229 C 0.27354 0.40174 0.89080
 C1230 C 0.26291 0.39335 0.91103
 C1231 C 0.23950 0.39850 0.91554
 C1232 C 0.22689 0.41280 0.90014
 C1233 C 0.20357 0.41790 0.90514
 C1234 C 0.19302 0.40910 0.92478
 C1235 C 0.20535 0.39509 0.93983
 C1236 C 0.22832 0.38979 0.93535
 C1237 C 0.29674 0.39631 0.88563
 C1238 C 0.30717 0.40474 0.86577
 C1239 C 0.29483 0.41873 0.85069
 C1240 C 0.27196 0.42437 0.85535
 C1241 C 0.27623 0.38027 0.92768
 C1242 C 0.28712 0.36982 0.94197
 C1243 C 0.22535 0.43787 0.86555
 C1244 C 0.21492 0.45167 0.85397
 H1245 H 0.19323 0.42867 0.89392
 H1246 H 0.17517 0.41317 0.92833
 H1247 H 0.19707 0.38827 0.95505
 H1248 H 0.23716 0.37873 0.94752
 H1249 H 0.30702 0.38545 0.89683
 H1250 H 0.32492 0.40040 0.86206
 H1251 H 0.30301 0.42523 0.83528
 H1252 H 0.26305 0.43526 0.84309
 C1253 C 0.23943 0.57414 0.11984
 C1254 C 0.24708 0.59614 0.12739
 C1255 C 0.25943 0.61083 0.11213
 C1256 C 0.26401 0.60344 0.08942
 C1257 C 0.25662 0.58131 0.08197
 C1258 C 0.24429 0.56662 0.09721
 C1259 C 0.23701 0.54460 0.08932
 C1260 C 0.24174 0.53734 0.06702
 C1261 C 0.25383 0.55169 0.05212
 C1262 C 0.26124 0.57342 0.05942
 C1263 C 0.26689 0.63275 0.12003
 C1264 C 0.26227 0.63997 0.14238
 C1265 C 0.25018 0.62561 0.15729
 C1266 C 0.24262 0.60393 0.14997
 C1267 C 0.27594 0.61863 0.07352
 C1268 C 0.28560 0.63075 0.05967
 C1269 C 0.22640 0.55921 0.13514
 C1270 C 0.21548 0.54620 0.14712
 H1271 H 0.22760 0.53277 0.10026
 H1272 H 0.23599 0.52048 0.06126
 H1273 H 0.25750 0.54595 0.03482
 H1274 H 0.27065 0.58390 0.04720
 H1275 H 0.27638 0.64450 0.10905
 H1276 H 0.26812 0.65678 0.14816
 H1277 H 0.24664 0.63130 0.17464
 H1278 H 0.23330 0.59336 0.16219
 C1279 C 0.76292 0.42215 0.11880
 C1280 C 0.74169 0.41246 0.12591
 C1281 C 0.72884 0.39839 0.11052
 C1282 C 0.73731 0.39413 0.08814
 C1283 C 0.75889 0.40320 0.08129
 C1284 C 0.77173 0.41727 0.09666
 C1285 C 0.79317 0.42633 0.08934
 C1286 C 0.80168 0.42160 0.06748
 C1287 C 0.78912 0.40782 0.05246
 C1288 C 0.76797 0.39868 0.05919
 C1289 C 0.70759 0.38901 0.11793
 C1290 C 0.69927 0.39339 0.13994
 C1291 C 0.71183 0.40717 0.15498
 C1292 C 0.73280 0.41665 0.14813
 C1293 C 0.72346 0.38130 0.07178
 C1294 C 0.71212 0.37121 0.05764
 C1295 C 0.77529 0.43789 0.13380
 C1296 C 0.78561 0.45146 0.14568
 H1297 H 0.80360 0.43709 0.10043
 H1298 H 0.81811 0.42865 0.06218
 H1299 H 0.79582 0.40418 0.03550
 H1300 H 0.75890 0.38799 0.04692
 H1301 H 0.69725 0.37815 0.10685
 H1302 H 0.68300 0.38606 0.14535
 H1303 H 0.70529 0.41052 0.17206
 H1304 H 0.74198 0.42721 0.16045
 C1305 C 0.88103 0.76167 0.57733
 C1306 C 0.87423 0.74050 0.58759
 C1307 C 0.88986 0.72825 0.60198
 C1308 C 0.91217 0.73725 0.60599
 C1309 C 0.91873 0.75876 0.59628
 C1310 C 0.90312 0.77099 0.58189
 C1311 C 0.91015 0.79236 0.57220
 C1312 C 0.93195 0.80139 0.57664
 C1313 C 0.94720 0.78944 0.59074
 C1314 C 0.94076 0.76836 0.60050
 C1315 C 0.88275 0.70705 0.61194
 C1316 C 0.86081 0.69821 0.60782
 C1317 C 0.84553 0.71018 0.59374
 C1318 C 0.85208 0.73109 0.58369
 C1319 C 0.92873 0.72405 0.61935
 C1320 C 0.94298 0.71322 0.62994
 C1321 C 0.86573 0.77349 0.56143
 C1322 C 0.85364 0.78344 0.54777
 H1323 H 0.89889 0.80235 0.56117
 H1324 H 0.93703 0.81776 0.56910
 H1325 H 0.96411 0.79653 0.59416
 H1326 H 0.95319 0.75977 0.61143
 H1327 H 0.89402 0.69715 0.62305
 H1328 H 0.85563 0.68199 0.61560
 H1329 H 0.82851 0.70324 0.59060
 H1330 H 0.83960 0.73980 0.57290
 C1331 C 0.88158 0.23983 0.42678
 C1332 C 0.87400 0.24745 0.40493
 C1333 C 0.88932 0.25979 0.39031
 C1334 C 0.91211 0.26439 0.39764
 C1335 C 0.91961 0.25698 0.41959
 C1336 C 0.90432 0.24464 0.43419
 C1337 C 0.91226 0.23734 0.45603
 C1338 C 0.93465 0.24209 0.46324
 C1339 C 0.94959 0.25418 0.44897
 C1340 C 0.94226 0.26159 0.42740
 C1341 C 0.88138 0.26724 0.36854
 C1342 C 0.85894 0.26261 0.36140
 C1343 C 0.84397 0.25053 0.37568
 C1344 C 0.85133 0.24299 0.39721
 C1345 C 0.92804 0.27641 0.38259
 C1346 C 0.94192 0.28615 0.37059
 C1347 C 0.86617 0.22694 0.44170
 C1348 C 0.85405 0.21616 0.45468
 H1349 H 0.90129 0.22790 0.46778
 H1350 H 0.94042 0.23638 0.47999
 H1351 H 0.96697 0.25786 0.45465
 H1352 H 0.95451 0.27101 0.41698
 H1353 H 0.89240 0.27672 0.35686
 H1354 H 0.85314 0.26844 0.34470
 H1355 H 0.82656 0.24698 0.37004
 H1356 H 0.83907 0.23367 0.40773
 C1357 C 0.12132 0.24079 0.57206
 C1358 C 0.10289 0.25326 0.56194
 C1359 C 0.08748 0.26604 0.57602
 C1360 C 0.09062 0.26635 0.60013
 C1361 C 0.10929 0.25425 0.61021
 C1362 C 0.12468 0.24140 0.59613
 C1363 C 0.14314 0.22934 0.60659
 C1364 C 0.14633 0.22997 0.63030
 C1365 C 0.13130 0.24255 0.64406
 C1366 C 0.11295 0.25457 0.63423
 C1367 C 0.06909 0.27823 0.56553
 C1368 C 0.06608 0.27789 0.54179
 C1369 C 0.08121 0.26547 0.52801
 C1370 C 0.09940 0.25324 0.53787
 C1371 C 0.07431 0.27870 0.61450
 C1372 C 0.06026 0.28882 0.62597
 C1373 C 0.13641 0.22699 0.55764
 C1374 C 0.14830 0.21558 0.54501
 H1375 H 0.15529 0.21935 0.59658
 H1376 H 0.16056 0.22066 0.63802
 H1377 H 0.13387 0.24299 0.66247
 H1378 H 0.10173 0.26413 0.64563
 H1379 H 0.05688 0.28818 0.57550
 H1380 H 0.05196 0.28735 0.53405
 H1381 H 0.07885 0.26534 0.50958
 H1382 H 0.11069 0.24384 0.52640
 C1383 C 0.12023 0.76197 0.42308
 C1384 C 0.12754 0.74103 0.41276
 C1385 C 0.11215 0.72837 0.39853
 C1386 C 0.08955 0.73675 0.39472
 C1387 C 0.08245 0.75804 0.40450
 C1388 C 0.09782 0.77067 0.41875
 C1389 C 0.09024 0.79179 0.42852
 C1390 C 0.06814 0.80020 0.42431
 C1391 C 0.05312 0.78787 0.41033
 C1392 C 0.06011 0.76703 0.40049
 C1393 C 0.11978 0.70741 0.38851
 C1394 C 0.14200 0.69918 0.39244
 C1395 C 0.15705 0.71154 0.40637
 C1396 C 0.14999 0.73223 0.41647
 C1397 C 0.07325 0.72315 0.38152
 C1398 C 0.05916 0.71204 0.37107
 C1399 C 0.13534 0.77424 0.43876
 C1400 C 0.14721 0.78463 0.45225
 H1401 H 0.10130 0.80205 0.43946
 H1402 H 0.06264 0.81638 0.43191
 H1403 H 0.03598 0.79448 0.40708
 H1404 H 0.04783 0.75814 0.38965
 H1405 H 0.10869 0.69722 0.37751
 H1406 H 0.14758 0.68312 0.38462
 H1407 H 0.17430 0.70507 0.40936
 H1408 H 0.16232 0.74127 0.42715
 C1409 C 0.57108 0.87993 0.75778
 C1410 C 0.56232 0.90190 0.75130
 C1411 C 0.57625 0.91739 0.73838
 C1412 C 0.59885 0.91080 0.73199
 C1413 C 0.60747 0.88869 0.73812
 C1414 C 0.59355 0.87321 0.75109
 C1415 C 0.60257 0.85125 0.75712
 C1416 C 0.62471 0.84474 0.75050
 C1417 C 0.63831 0.85987 0.73780
 C1418 C 0.62988 0.88162 0.73164
 C1419 C 0.56715 0.93930 0.73220
 C1420 C 0.54493 0.94573 0.73860
 C1421 C 0.53130 0.93059 0.75123
 C1422 C 0.53978 0.90890 0.75752
 C1423 C 0.61330 0.92703 0.71954
 C1424 C 0.62491 0.94105 0.70947
 C1425 C 0.55698 0.86449 0.77156
 C1426 C 0.54463 0.85238 0.78308
 H1427 H 0.59261 0.83889 0.76697
 H1428 H 0.63134 0.82787 0.75525
 H1429 H 0.65549 0.85472 0.73269
 H1430 H 0.64108 0.89278 0.72172
 H1431 H 0.57706 0.95168 0.72234
 H1432 H 0.53826 0.96255 0.73372
 H1433 H 0.51405 0.93567 0.75617
 H1434 H 0.52847 0.89773 0.76729
 C1435 C 0.42699 0.87693 0.24244
 C1436 C 0.40321 0.87904 0.23749
 C1437 C 0.38933 0.89458 0.25040
 C1438 C 0.39935 0.90797 0.26814
 C1439 C 0.42300 0.90539 0.27351
 C1440 C 0.43685 0.88978 0.26066
 C1441 C 0.46046 0.88751 0.26635
 C1442 C 0.47009 0.90025 0.28424
 C1443 C 0.45657 0.91561 0.29672
 C1444 C 0.43330 0.91824 0.29148
 C1445 C 0.36562 0.89647 0.24509
 C1446 C 0.35589 0.88337 0.22750
 C1447 C 0.36946 0.86819 0.21486
 C1448 C 0.39287 0.86599 0.21971
 C1449 C 0.38558 0.92494 0.28036
 C1450 C 0.37457 0.93947 0.29039
 C1451 C 0.44159 0.86232 0.22831
 C1452 C 0.45441 0.85085 0.21667
 H1453 H 0.47171 0.87581 0.25715
 H1454 H 0.48814 0.89819 0.28846
 H1455 H 0.46415 0.92552 0.31056
 H1456 H 0.42348 0.93036 0.30172
 H1457 H 0.35436 0.90801 0.25448
 H1458 H 0.33771 0.88500 0.22368
 H1459 H 0.36182 0.85805 0.20122
 H1460 H 0.40273 0.85392 0.20945
 C1461 C 0.57983 0.12197 0.23801
 C1462 C 0.58917 0.12907 0.25933
 C1463 C 0.60325 0.11359 0.27217
 C1464 C 0.60786 0.09112 0.26361
 C1465 C 0.59920 0.08433 0.24191
 C1466 C 0.58513 0.09979 0.22908
 C1467 C 0.57646 0.09251 0.20754
 C1468 C 0.58157 0.07059 0.19893
 C1469 C 0.59535 0.05548 0.21147
 C1470 C 0.60411 0.06217 0.23272
 C1471 C 0.61226 0.12098 0.29351
 C1472 C 0.60750 0.14305 0.30194
 C1473 C 0.59371 0.15818 0.28940
 C1474 C 0.58459 0.15136 0.26833
 C1475 C 0.62054 0.07457 0.27749
 C1476 C 0.63045 0.06020 0.28883
 C1477 C 0.56391 0.13693 0.22573
 C1478 C 0.55011 0.14860 0.21544
 H1479 H 0.56572 0.10366 0.19711
 H1480 H 0.57481 0.06532 0.18242
 H1481 H 0.59929 0.03848 0.20469
 H1482 H 0.61483 0.04983 0.24177
 H1483 H 0.62311 0.10982 0.30385
 H1484 H 0.61454 0.14845 0.31829
 H1485 H 0.59007 0.17531 0.29602
 H1486 H 0.57401 0.16374 0.25916
 C1487 C 0.42510 0.12001 0.75883
 C1488 C 0.43519 0.10345 0.74397
 C1489 C 0.42096 0.08767 0.73177
 C1490 C 0.39674 0.08859 0.73444
 C1491 C 0.38664 0.10542 0.74895
 C1492 C 0.40087 0.12117 0.76121
 C1493 C 0.39040 0.13777 0.77571
 C1494 C 0.36654 0.13880 0.77802
 C1495 C 0.35261 0.12341 0.76602
 C1496 C 0.36245 0.10687 0.75163
 C1497 C 0.43144 0.07117 0.71714
 C1498 C 0.45529 0.07036 0.71456
 C1499 C 0.46920 0.08584 0.72643
 C1500 C 0.45937 0.10220 0.74102
 C1501 C 0.38233 0.07188 0.72263
 C1502 C 0.37072 0.05763 0.71292
 C1503 C 0.43979 0.13539 0.77201
 C1504 C 0.45263 0.14758 0.78286
 H1505 H 0.40053 0.15012 0.78536
 H1506 H 0.35880 0.15161 0.78917
 H1507 H 0.33408 0.12429 0.76787
 H1508 H 0.35092 0.09529 0.74263
 H1509 H 0.42135 0.05878 0.70751
 H1510 H 0.46300 0.05767 0.70326
 H1511 H 0.48770 0.08521 0.72429
 H1512 H 0.47094 0.11385 0.74988
 C1513 C 0.57845 0.76364 0.11986
 C1514 C 0.59171 0.77614 0.10364
 C1515 C 0.60660 0.76411 0.08840
 C1516 C 0.60814 0.73964 0.08944
 C1517 C 0.59535 0.72719 0.10606
 C1518 C 0.58047 0.73923 0.12133
 C1519 C 0.56775 0.72639 0.13771
 C1520 C 0.56967 0.70236 0.13897
 C1521 C 0.58420 0.69059 0.12402
 C1522 C 0.59692 0.70277 0.10771
 C1523 C 0.61957 0.77697 0.07223
 C1524 C 0.61786 0.80103 0.07115
 C1525 C 0.60329 0.81279 0.08605
 C1526 C 0.59032 0.80058 0.10214
 C1527 C 0.62222 0.72727 0.07291
 C1528 C 0.63354 0.71708 0.05881
 C1529 C 0.56208 0.77578 0.13437
 C1530 C 0.54810 0.78585 0.14596
 H1531 H 0.55625 0.73478 0.14972
 H1532 H 0.55984 0.69281 0.15161
 H1533 H 0.58563 0.67192 0.12507
 H1534 H 0.60798 0.69286 0.09647
 H1535 H 0.63119 0.76861 0.06031
 H1536 H 0.62791 0.81059 0.05868
 H1537 H 0.60204 0.83149 0.08515
 H1538 H 0.57927 0.81051 0.11340
 C1539 C 0.42809 0.24084 0.12106
 C1540 C 0.43728 0.24923 0.10011
 C1541 C 0.42298 0.26171 0.08463
 C1542 C 0.39954 0.26562 0.09011
 C1543 C 0.39044 0.25754 0.11120
 C1544 C 0.40477 0.24510 0.12673
 C1545 C 0.39529 0.23711 0.14766
 C1546 C 0.37229 0.24131 0.15311
 C1547 C 0.35829 0.25349 0.13794
 C1548 C 0.36716 0.26155 0.11719
 C1549 C 0.43257 0.26997 0.06381
 C1550 C 0.45557 0.26585 0.05838
 C1551 C 0.46953 0.25353 0.07345
 C1552 C 0.46062 0.24534 0.09413
 C1553 C 0.38477 0.27747 0.07376
 C1554 C 0.37294 0.28712 0.05967
 C1555 C 0.44270 0.22759 0.13648
 C1556 C 0.45559 0.21657 0.14851
 H1557 H 0.40553 0.22758 0.16000
 H1558 H 0.36531 0.23508 0.16921
 H1559 H 0.34044 0.25671 0.14227
 H1560 H 0.35562 0.27097 0.10595
 H1561 H 0.42245 0.27972 0.05156
 H1562 H 0.46260 0.27225 0.04237
 H1563 H 0.48737 0.25031 0.06912
 H1564 H 0.47222 0.23595 0.10532
 C1565 C 0.57133 0.24469 0.87626
 C1566 C 0.56099 0.26152 0.89064
 C1567 C 0.57475 0.27429 0.90632
 C1568 C 0.59878 0.27025 0.90746
 C1569 C 0.60922 0.25391 0.89263
 C1570 C 0.59544 0.24107 0.87699
 C1571 C 0.60620 0.22470 0.86246
 C1572 C 0.62993 0.22115 0.86331
 C1573 C 0.64342 0.23373 0.87858
 C1574 C 0.63327 0.24995 0.89312
 C1575 C 0.56400 0.29085 0.92069
 C1576 C 0.54035 0.29478 0.91948
 C1577 C 0.52691 0.28239 0.90405
 C1578 C 0.53699 0.26587 0.88981
 C1579 C 0.61259 0.28243 0.92433
 C1580 C 0.62370 0.29241 0.93874
 C1581 C 0.55697 0.23064 0.86138
 C1582 C 0.54433 0.21903 0.84970
 H1583 H 0.59643 0.21454 0.85027
 H1584 H 0.63790 0.20858 0.85206
 H1585 H 0.66184 0.23092 0.87916
 H1586 H 0.64446 0.25934 0.90468
 H1587 H 0.57374 0.30097 0.93294
 H1588 H 0.53242 0.30756 0.93054
 H1589 H 0.50856 0.28560 0.90308
 H1590 H 0.52579 0.25667 0.87811
 C1591 C 0.42635 0.76033 0.88255
 C1592 C 0.43318 0.75630 0.90557
 C1593 C 0.41826 0.74427 0.92078
 C1594 C 0.39656 0.73637 0.91292
 C1595 C 0.38980 0.74022 0.88988
 C1596 C 0.40474 0.75226 0.87464
 C1597 C 0.39760 0.75596 0.85170
 C1598 C 0.37630 0.74798 0.84401
 C1599 C 0.36170 0.73619 0.85890
 C1600 C 0.36828 0.73231 0.88160
 C1601 C 0.42549 0.74044 0.94371
 C1602 C 0.44681 0.74832 0.95139
 C1603 C 0.46140 0.76011 0.93652
 C1604 C 0.45476 0.76410 0.91386
 C1605 C 0.38122 0.72453 0.92871
 C1606 C 0.36902 0.71490 0.94247
 C1607 C 0.44160 0.77289 0.86719
 C1608 C 0.45475 0.78345 0.85507
 H1609 H 0.40837 0.76502 0.83948
 H1610 H 0.37110 0.75095 0.82640
 H1611 H 0.34518 0.73002 0.85284
 H1612 H 0.35636 0.72305 0.89254
 H1613 H 0.41481 0.73128 0.95592
 H1614 H 0.45205 0.74524 0.96897
 H1615 H 0.47795 0.76619 0.94256
 H1616 H 0.46674 0.77333 0.90296
 C1617 C 0.75514 0.87612 0.42948
 C1618 C 0.75635 0.87493 0.40524
 C1619 C 0.74338 0.89070 0.39161
 C1620 C 0.72932 0.90756 0.40233
 C1621 C 0.72767 0.90837 0.42657
 C1622 C 0.74059 0.89258 0.44019
 C1623 C 0.73869 0.89376 0.46440
 C1624 C 0.72442 0.91006 0.47484
 C1625 C 0.71185 0.92555 0.46152
 C1626 C 0.71339 0.92481 0.43766
 C1627 C 0.74494 0.88927 0.36741
 C1628 C 0.75891 0.87271 0.35697
 C1629 C 0.77161 0.85731 0.37029
 C1630 C 0.77042 0.85834 0.39417
 C1631 C 0.71712 0.92456 0.38853
 C1632 C 0.70721 0.93913 0.37744
 C1633 C 0.76938 0.86103 0.44353
 C1634 C 0.78119 0.84924 0.45593
 H1635 H 0.74811 0.88209 0.47553
 H1636 H 0.72307 0.91063 0.49336
 H1637 H 0.70080 0.93819 0.46971
 H1638 H 0.70321 0.93718 0.42804
 H1639 H 0.73536 0.90086 0.35633
 H1640 H 0.75989 0.87184 0.33843
 H1641 H 0.78244 0.84449 0.36209
 H1642 H 0.78058 0.84597 0.40382
 C1643 C 0.24015 0.88040 0.57250
 C1644 C 0.24468 0.90344 0.56541
 C1645 C 0.25682 0.91872 0.58019
 C1646 C 0.26435 0.91088 0.60200
 C1647 C 0.26002 0.88780 0.60900
 C1648 C 0.24786 0.87251 0.59421
 C1649 C 0.24367 0.84953 0.60160
 C1650 C 0.25130 0.84187 0.62300
 C1651 C 0.26320 0.85681 0.63745
 C1652 C 0.26756 0.87954 0.63062
 C1653 C 0.26113 0.94167 0.57273
 C1654 C 0.25363 0.94932 0.55129
 C1655 C 0.24175 0.93438 0.53683
 C1656 C 0.23728 0.91170 0.54371
 C1657 C 0.27632 0.92675 0.61717
 C1658 C 0.28608 0.94056 0.62925
 C1659 C 0.22740 0.86504 0.55741
 C1660 C 0.21664 0.85306 0.54430
 H1661 H 0.23449 0.83728 0.59093
 H1662 H 0.24795 0.82423 0.62839
 H1663 H 0.26910 0.85077 0.65405
 H1664 H 0.27691 0.89053 0.64244
 H1665 H 0.27035 0.95395 0.58331
 H1666 H 0.25708 0.96693 0.54586
 H1667 H 0.23597 0.94040 0.52018
 H1668 H 0.22800 0.90076 0.53182
 C1669 C 0.23892 0.11898 0.42339
 C1670 C 0.26015 0.12636 0.41392
 C1671 C 0.27285 0.11124 0.39939
 C1672 C 0.26425 0.08886 0.39445
 C1673 C 0.24269 0.08175 0.40335
 C1674 C 0.23000 0.09684 0.41788
 C1675 C 0.20859 0.08924 0.42676
 C1676 C 0.19996 0.06739 0.42140
 C1677 C 0.21235 0.05265 0.40716
 C1678 C 0.23346 0.05965 0.39818
 C1679 C 0.29409 0.11892 0.39024
 C1680 C 0.30254 0.14093 0.39528
 C1681 C 0.29013 0.15570 0.40949
 C1682 C 0.26917 0.14859 0.41876
 C1683 C 0.27793 0.07271 0.38110
 C1684 C 0.28904 0.05861 0.37060
 C1685 C 0.22662 0.13372 0.43944
 C1686 C 0.21628 0.14537 0.45318
 H1687 H 0.19828 0.10010 0.43786
 H1688 H 0.18355 0.06187 0.42833
 H1689 H 0.20556 0.03569 0.40303
 H1690 H 0.24239 0.04761 0.38710
 H1691 H 0.30432 0.10806 0.37906
 H1692 H 0.31881 0.14655 0.38811
 H1693 H 0.29678 0.17278 0.41334
 H1694 H 0.26011 0.16069 0.42969
 C1695 C 0.75813 0.11932 0.57171
 C1696 C 0.75184 0.09726 0.56309
 C1697 C 0.73895 0.08177 0.57703
 C1698 C 0.73236 0.08842 0.59948
 C1699 C 0.73834 0.11059 0.60797
 C1700 C 0.75129 0.12608 0.59404
 C1701 C 0.75715 0.14811 0.60292
 C1702 C 0.75038 0.15467 0.62493
 C1703 C 0.73769 0.13954 0.63853
 C1704 C 0.73169 0.11772 0.63024
 C1705 C 0.73296 0.05977 0.56808
 C1706 C 0.73952 0.05328 0.54600
 C1707 C 0.75212 0.06844 0.53236
 C1708 C 0.75823 0.09020 0.54070
 C1709 C 0.71983 0.07224 0.61389
 C1710 C 0.70967 0.05827 0.62547
 C1711 C 0.77179 0.13481 0.55756
 C1712 C 0.78319 0.14697 0.54515
 H1713 H 0.76698 0.16047 0.59296
 H1714 H 0.75500 0.17159 0.63145
 H1715 H 0.73246 0.14472 0.65560
 H1716 H 0.72178 0.10655 0.64143
 H1717 H 0.72314 0.04738 0.57800
 H1718 H 0.73480 0.03640 0.53944
 H1719 H 0.75718 0.06332 0.51522
 H1720 H 0.76798 0.10138 0.52939
 C1721 C 0.87934 0.57019 0.24275
 C1722 C 0.89752 0.55979 0.25532
 C1723 C 0.91280 0.57384 0.26831
 C1724 C 0.90988 0.59820 0.26857
 C1725 C 0.89144 0.60855 0.25637
 C1726 C 0.87610 0.59449 0.24343
 C1727 C 0.85786 0.60521 0.23129
 C1728 C 0.85483 0.62916 0.23193
 C1729 C 0.86983 0.64291 0.24457
 C1730 C 0.88797 0.63282 0.25668
 C1731 C 0.93086 0.56306 0.28071
 C1732 C 0.93383 0.53911 0.28018
 C1733 C 0.91895 0.52538 0.26740
 C1734 C 0.90095 0.53549 0.25513
 C1735 C 0.92633 0.61257 0.28076
 C1736 C 0.94051 0.62405 0.29067
 C1737 C 0.86442 0.55581 0.22875
 C1738 C 0.85269 0.54320 0.21715
 H1739 H 0.84575 0.59522 0.22123
 H1740 H 0.84077 0.63708 0.22255
 H1741 H 0.86741 0.66150 0.24501
 H1742 H 0.89918 0.64422 0.26628
 H1743 H 0.94283 0.57299 0.29098
 H1744 H 0.94775 0.53117 0.28974
 H1745 H 0.92138 0.50679 0.26697
 H1746 H 0.88980 0.52404 0.24551
 C1747 C 0.88083 0.42841 0.75813
 C1748 C 0.90181 0.43772 0.74984
 C1749 C 0.91734 0.42342 0.73741
 C1750 C 0.91185 0.39986 0.73344
 C1751 C 0.89072 0.39064 0.74142
 C1752 C 0.87516 0.40497 0.75381
 C1753 C 0.85418 0.39537 0.76169
 C1754 C 0.84872 0.37226 0.75743
 C1755 C 0.86392 0.35825 0.74531
 C1756 C 0.88472 0.36725 0.73735
 C1757 C 0.93819 0.43313 0.72927
 C1758 C 0.94363 0.45625 0.73343
 C1759 C 0.92851 0.47021 0.74568
 C1760 C 0.90779 0.46118 0.75377
 C1761 C 0.92823 0.38507 0.72163
 C1762 C 0.94231 0.37319 0.71199
 C1763 C 0.86540 0.44297 0.77142
 C1764 C 0.85333 0.45573 0.78252
 H1765 H 0.84181 0.40560 0.77118
 H1766 H 0.83259 0.36518 0.76357
 H1767 H 0.85959 0.34032 0.74204
 H1768 H 0.89598 0.35570 0.72798
 H1769 H 0.95048 0.42301 0.71958
 H1770 H 0.95967 0.46337 0.72712
 H1771 H 0.93284 0.48815 0.74893
 H1772 H 0.89658 0.47279 0.76312
 C1773 C 0.12098 0.57641 0.76379
 C1774 C 0.09882 0.58156 0.77255
 C1775 C 0.08365 0.59606 0.75986
 C1776 C 0.09073 0.60530 0.73847
 C1777 C 0.11313 0.60073 0.73004
 C1778 C 0.12831 0.58623 0.74274
 C1779 C 0.15056 0.58174 0.73389
 C1780 C 0.15763 0.59136 0.71309
 C1781 C 0.14279 0.60556 0.70068
 C1782 C 0.12076 0.61024 0.70897
 C1783 C 0.06152 0.60084 0.76890
 C1784 C 0.05456 0.59154 0.78986
 C1785 C 0.06938 0.57734 0.80227
 C1786 C 0.09127 0.57235 0.79380
 C1787 C 0.07458 0.61872 0.72483
 C1788 C 0.06056 0.62933 0.71375
 C1789 C 0.13578 0.56030 0.77606
 C1790 C 0.14736 0.54643 0.78641
 H1791 H 0.16272 0.57084 0.74296
 H1792 H 0.17472 0.58778 0.70658
 H1793 H 0.14837 0.61299 0.68455
 H1794 H 0.10983 0.62142 0.69874
 H1795 H 0.04939 0.61186 0.75994
 H1796 H 0.03758 0.59538 0.79652
 H1797 H 0.06391 0.57016 0.81856
 H1798 H 0.10219 0.56126 0.80413
 C1799 C 0.12082 0.42256 0.23787
 C1800 C 0.12220 0.42103 0.26209
 C1801 C 0.10683 0.40632 0.27429
 C1802 C 0.09020 0.39322 0.26218
 C1803 C 0.08927 0.39422 0.23791
 C1804 C 0.10462 0.40893 0.22571
 C1805 C 0.10324 0.40978 0.20146
 C1806 C 0.08716 0.39647 0.18960
 C1807 C 0.07215 0.38208 0.20152
 C1808 C 0.07311 0.38090 0.22540
 C1809 C 0.10840 0.40525 0.29852
 C1810 C 0.12472 0.41829 0.31036
 C1811 C 0.13975 0.43265 0.29844
 C1812 C 0.13858 0.43409 0.27458
 C1813 C 0.07350 0.37938 0.27468
 C1814 C 0.05925 0.36824 0.28490
 C1815 C 0.13531 0.43886 0.22552
 C1816 C 0.14678 0.45278 0.21515
 H1817 H 0.11458 0.42067 0.19142
 H1818 H 0.08635 0.39731 0.17105
 H1819 H 0.05969 0.37176 0.19223
 H1820 H 0.06111 0.36940 0.23390
 H1821 H 0.09708 0.39431 0.30854
 H1822 H 0.12569 0.41723 0.32889
 H1823 H 0.15240 0.44275 0.30772
 H1824 H 0.15066 0.44548 0.26605
   
