data_POSCAR
  _audit_creation_date              2014-09-24
  _audit_creation_method            'ToBaCCo'
  _symmetry_space_group_name_H-M    'P1'
  _symmetry_Int_Tables_number       1
  _symmetry_cell_setting            triclinic
  loop_
  _symmetry_equiv_pos_as_xyz
 x,y,z
_cell_length_a 49.7053
_cell_length_b 49.6219
_cell_length_c 49.1475
_cell_angle_alpha 90.299400
_cell_angle_beta 90.111700
_cell_angle_gamma 90.282100
loop_
  _atom_site_label
  _atom_site_type_symbol
  _atom_site_fract_x
  _atom_site_fract_y
  _atom_site_fract_z
C1 C 0.24593 1.06658 -0.01104
 C2 C 0.24360 1.05304 0.01382
 C3 C 0.24499 1.02466 0.01392
 C4 C 0.25055 1.01011 -0.01027
 C5 C 0.25430 1.02471 -0.03458
 C6 C 0.25061 1.05270 -0.03556
 C7 C 0.25212 0.97985 -0.01048
 C8 C 0.24676 0.96505 -0.03457
 C9 C 0.24945 0.93694 -0.03556
 C10 C 0.25645 0.92322 -0.01171
 C11 C 0.25994 0.93715 0.01302
 C12 C 0.25886 0.96540 0.01323
 H13 H 0.24533 1.08834 -0.01070
 H14 H 0.24110 1.01393 0.03253
 H15 H 0.25979 1.01432 -0.05315
 H16 H 0.24022 0.97517 -0.05284
 H17 H 0.25998 0.90178 -0.01246
 H18 H 0.26329 0.97588 0.03207
 C19 C 0.71862 0.56912 0.50237
 C20 C 0.72312 0.55562 0.52705
 C21 C 0.72313 0.52739 0.52726
 C22 C 0.71764 0.51226 0.50355
 C23 C 0.71269 0.52632 0.47916
 C24 C 0.71432 0.55454 0.47811
 C25 C 0.71790 0.48201 0.50418
 C26 C 0.72399 0.46706 0.48059
 C27 C 0.72419 0.43884 0.48070
 C28 C 0.71941 0.42517 0.50523
 C29 C 0.71463 0.43959 0.52948
 C30 C 0.71280 0.46779 0.52845
 H31 H 0.71771 0.59085 0.50206
 H32 H 0.72798 0.51739 0.54613
 H33 H 0.70783 0.51550 0.46062
 H34 H 0.72902 0.47722 0.46185
 H35 H 0.71854 0.40345 0.50529
 H36 H 0.70751 0.47850 0.54688
 C37 C 0.74096 1.00006 1.07705
 C38 C 0.73486 0.97591 1.06314
 C39 C 0.73047 0.97701 1.03495
 C40 C 0.73500 1.00090 1.02017
 C41 C 0.74182 1.02459 1.03456
 C42 C 0.74398 1.02456 1.06313
 C43 C 0.73400 1.00063 0.98972
 C44 C 0.72738 1.02394 0.97478
 C45 C 0.72707 1.02336 0.94618
 C46 C 0.73239 0.99916 0.93248
 C47 C 0.73948 0.97595 0.94689
 C48 C 0.74043 0.97690 0.97530
 H49 H 0.74255 1.00035 1.09898
 H50 H 0.72429 0.95879 1.02441
 H51 H 0.74644 1.04266 1.02336
 H52 H 0.72187 1.04234 0.98521
 H53 H 0.73118 0.99859 0.91048
 H54 H 0.74689 0.95905 0.98599
 C55 C 0.23107 0.49102 0.55726
 C56 C 0.24355 0.46979 0.54337
 C57 C 0.24627 0.47104 0.51504
 C58 C 0.23667 0.49341 0.50037
 C59 C 0.22465 0.51480 0.51496
 C60 C 0.22227 0.51375 0.54333
 C61 C 0.23925 0.49448 0.47007
 C62 C 0.24094 0.51944 0.45664
 C63 C 0.24215 0.52081 0.42825
 C64 C 0.24269 0.49684 0.41297
 C65 C 0.24257 0.47168 0.42586
 C66 C 0.23989 0.47067 0.45425
 H67 H 0.22835 0.49009 0.57911
 H68 H 0.25646 0.45471 0.50473
 H69 H 0.21646 0.53204 0.50451
 H70 H 0.24142 0.53809 0.46813
 H71 H 0.24206 0.49765 0.39103
 H72 H 0.23814 0.45115 0.46380
 C73 C 1.08054 0.25903 -0.00247
 C74 C 1.06845 0.25249 0.02259
 C75 C 1.04036 0.25535 0.02512
 C76 C 1.02445 0.26503 0.00346
 C77 C 1.03743 0.27208 -0.02100
 C78 C 1.06521 0.26887 -0.02425
 C79 C 0.99443 0.26747 0.00612
 C80 C 0.97769 0.26556 -0.01707
 C81 C 0.94962 0.26854 -0.01529
 C82 C 0.93808 0.27165 0.01069
 C83 C 0.95415 0.27340 0.03418
 C84 C 0.98221 0.27164 0.03169
 H85 H 1.10185 0.25669 -0.00535
 H86 H 1.03090 0.24929 0.04395
 H87 H 1.02614 0.28051 -0.03773
 H88 H 0.98641 0.26151 -0.03681
 H89 H 0.91659 0.27158 0.01317
 H90 H 0.99435 0.27377 0.04987
 C91 C 0.57317 0.75974 0.51101
 C92 C 0.55691 0.76567 0.53357
 C93 C 0.52890 0.76319 0.53109
 C94 C 0.51697 0.75426 0.50657
 C95 C 0.53377 0.74845 0.48429
 C96 C 0.56167 0.75196 0.48609
 C97 C 0.48721 0.75065 0.50422
 C98 C 0.47401 0.75426 0.47911
 C99 C 0.44638 0.74926 0.47638
 C100 C 0.43130 0.74257 0.49956
 C101 C 0.44381 0.74019 0.52515
 C102 C 0.47179 0.74324 0.52701
 H103 H 0.59480 0.76006 0.51312
 H104 H 0.51650 0.76835 0.54842
 H105 H 0.52529 0.74104 0.46536
 H106 H 0.48518 0.76071 0.46140
 H107 H 0.40989 0.73942 0.49758
 H108 H 0.48145 0.73992 0.54645
 C109 C 0.00394 0.72762 -0.06524
 C110 C 0.02631 0.73507 -0.04964
 C111 C 0.02295 0.74040 -0.02200
 C112 C -0.00212 0.73673 -0.00893
 C113 C -0.02479 0.73055 -0.02545
 C114 C -0.02194 0.72677 -0.05387
 C115 C -0.00377 0.73929 0.02167
 C116 C -0.02836 0.74355 0.03561
 C117 C -0.02881 0.74634 0.06430
 C118 C -0.00428 0.74706 0.07856
 C119 C 0.02014 0.74301 0.06522
 C120 C 0.01999 0.73743 0.03741
 H121 H 0.00655 0.72305 -0.08665
 H122 H 0.04038 0.74770 -0.01104
 H123 H -0.04429 0.72787 -0.01630
 H124 H -0.04692 0.74479 0.02435
 H125 H -0.00426 0.74964 0.10048
 H126 H 0.03896 0.73197 0.02834
 C127 C 0.50438 0.24199 0.43097
 C128 C 0.52867 0.24731 0.44417
 C129 C 0.53011 0.24591 0.47259
 C130 C 0.50727 0.23854 0.48802
 C131 C 0.48320 0.23209 0.47405
 C132 C 0.48167 0.23382 0.44564
 C133 C 0.50834 0.23830 0.51848
 C134 C 0.48490 0.24307 0.53407
 C135 C 0.48607 0.24360 0.56259
 C136 C 0.51087 0.24071 0.57556
 C137 C 0.53448 0.23666 0.56064
 C138 C 0.53296 0.23431 0.53229
 H139 H 0.50334 0.24419 0.40907
 H140 H 0.54882 0.25157 0.48238
 H141 H 0.46557 0.22538 0.48501
 H142 H 0.46594 0.24725 0.52422
 H143 H 0.51163 0.24104 0.59760
 H144 H 0.55120 0.22988 0.52120
 C145 C 1.06379 -0.00209 0.22025
 C146 C 1.05069 0.02538 0.22383
 C147 C 1.02042 0.02362 0.22356
 C148 C 1.00633 -0.00045 0.21844
 C149 C 1.02071 -0.02465 0.21504
 C150 C 1.04877 -0.02582 0.21729
 C151 C 0.97621 -0.00010 0.21769
 C152 C 0.96111 -0.02257 0.22625
 C153 C 0.93278 -0.02184 0.22695
 C154 C 0.91974 0.00243 0.22064
 C155 C 0.93438 0.02514 0.21211
 C156 C 0.96237 0.02334 0.20985
 H157 H 1.08550 -0.00306 0.22013
 H158 H 1.00972 0.04213 0.22761
 H159 H 1.00994 -0.04326 0.21106
 H160 H 0.97159 -0.04001 0.23373
 H161 H 0.89812 0.00363 0.22289
 H162 H 0.97330 0.04066 0.20229
 C163 C 0.57930 0.50535 0.73145
 C164 C 0.56726 0.52920 0.72294
 C165 C 0.53917 0.53027 0.72031
 C166 C 0.52295 0.50756 0.72656
 C167 C 0.53577 0.48370 0.73529
 C168 C 0.56390 0.48258 0.73752
 C169 C 0.49292 0.50871 0.72364
 C170 C 0.47766 0.48528 0.71760
 C171 C 0.44962 0.48668 0.71424
 C172 C 0.43687 0.51170 0.71591
 C173 C 0.45150 0.53527 0.72177
 C174 C 0.47926 0.53348 0.72644
 H175 H 0.60105 0.50445 0.73323
 H176 H 0.53026 0.54851 0.71248
 H177 H 0.52407 0.46621 0.74105
 H178 H 0.48745 0.46607 0.71467
 H179 H 0.41522 0.51250 0.71359
 H180 H 0.49012 0.55162 0.73210
 C181 C 1.01063 1.08172 0.78329
 C182 C 0.98360 1.06856 0.78984
 C183 C 0.98524 1.03826 0.79053
 C184 C 1.00843 1.02402 0.78309
 C185 C 1.03192 1.03843 0.77617
 C186 C 1.03362 1.06658 0.77754
 C187 C 1.00802 0.99377 0.78277
 C188 C 1.03169 0.97934 0.78799
 C189 C 1.03289 0.94890 0.78704
 C190 C 1.00533 0.93610 0.78253
 C191 C 0.98215 0.95141 0.77855
 C192 C 0.98395 0.97953 0.77743
 H193 H 1.01156 1.10346 0.78239
 H194 H 0.96727 1.02759 0.79672
 H195 H 1.04967 1.02762 0.76972
 H196 H 1.05024 0.98984 0.79274
 H197 H 1.00405 0.91440 0.78122
 H198 H 0.96585 0.99046 0.77239
 C199 C 0.49846 0.57696 0.26880
 C200 C 0.47397 0.56364 0.27292
 C201 C 0.47271 0.53539 0.27100
 C202 C 0.49589 0.52038 0.26414
 C203 C 0.51999 0.53459 0.25871
 C204 C 0.52174 0.56261 0.26199
 C205 C 0.49551 0.49009 0.26321
 C206 C 0.51922 0.47568 0.26866
 C207 C 0.52101 0.44573 0.26633
 C208 C 0.49432 0.43255 0.26014
 C209 C 0.47083 0.44750 0.25571
 C210 C 0.47179 0.47575 0.25686
 H211 H 0.49881 0.59872 0.27008
 H212 H 0.45393 0.52537 0.27572
 H213 H 0.53778 0.52395 0.25210
 H214 H 0.53741 0.48615 0.27470
 H215 H 0.49361 0.41079 0.25978
 H216 H 0.45355 0.48666 0.25232
 O217 O 0.25818 0.16025 0.21706
 O218 O 0.28877 0.15605 0.25505
 O219 O 0.19024 0.19956 0.25122
 O220 O 0.18284 0.23736 0.27574
 O221 O 0.22423 0.22872 0.17669
 O222 O 0.26346 0.25483 0.16598
 O223 O 0.26400 0.27856 0.31319
 O224 O 0.23088 0.24562 0.32346
 O225 O 0.33077 0.23461 0.28521
 O226 O 0.33659 0.19951 0.24827
 O227 O 0.30273 0.30145 0.24113
 O228 O 0.26467 0.30782 0.20883
 O229 O 0.26578 0.30711 0.27720
 O230 O 0.23629 0.31254 0.23725
 O231 O 0.33309 0.26750 0.24447
 O232 O 0.34081 0.22756 0.21921
 O233 O 0.29870 0.24132 0.31743
 O234 O 0.26454 0.21340 0.32872
 O235 O 0.25901 0.18872 0.18093
 O236 O 0.29142 0.22333 0.16939
 O237 O 0.19202 0.23324 0.20918
 O238 O 0.18710 0.26797 0.24344
 O239 O 0.22163 0.16674 0.25655
 O240 O 0.26096 0.15864 0.28418
 Zr241 Zr 0.25882 0.18595 0.25132
 O242 O 0.28465 0.21064 0.27442
 Zr243 Zr 0.21358 0.23477 0.24611
 O244 O 0.23790 0.26175 0.26872
 Zr245 Zr 0.26060 0.22748 0.19868
 O246 O 0.28706 0.25392 0.21935
 Zr247 Zr 0.26260 0.24009 0.29534
 O248 O 0.23607 0.21303 0.27515
 Zr249 Zr 0.30966 0.23243 0.24808
 O250 O 0.28572 0.20541 0.22482
 Zr251 Zr 0.26501 0.28167 0.24272
 O252 O 0.23834 0.25703 0.21955
 O253 O 0.23459 0.20623 0.22374
 O254 O 0.28915 0.26150 0.27064
 C255 C 0.25827 0.16501 0.19141
 C256 C 0.19729 0.17504 0.25555
 C257 C 0.19962 0.23118 0.18430
 C258 C 0.26506 0.30222 0.30286
 C259 C 0.32316 0.23805 0.30996
 C260 C 0.32694 0.29244 0.24204
 H261 H 0.29484 0.19920 0.28719
 H262 H 0.29876 0.26304 0.20598
 H263 H 0.22230 0.19407 0.21354
 H264 H 0.22633 0.27451 0.27877
 H265 H 0.21768 0.23098 0.32006
 H266 H 0.18899 0.25018 0.28994
 H267 H 0.33506 0.23664 0.20233
 H268 H 0.30448 0.21032 0.17691
 H269 H 0.25128 0.19892 0.32517
 H270 H 0.24734 0.16421 0.29769
 H271 H 0.27931 0.30227 0.19644
 H272 H 0.25240 0.27061 0.17104
 H273 H 0.30224 0.15956 0.24067
 H274 H 0.33323 0.18905 0.26501
 H275 H 0.19379 0.27955 0.22855
 H276 H 0.22264 0.31069 0.25174
 O277 O 0.76016 0.82369 0.22893
 O278 O 0.74230 0.83143 0.27307
 O279 O 0.82942 0.77493 0.24575
 O280 O 0.83774 0.73530 0.26528
 O281 O 0.77474 0.75364 0.18046
 O282 O 0.73185 0.73169 0.17957
 O283 O 0.76421 0.70585 0.32304
 O284 O 0.80119 0.73461 0.32607
 O285 O 0.69717 0.75636 0.31160
 O286 O 0.68697 0.79333 0.27851
 O287 O 0.70532 0.68888 0.26076
 O288 O 0.73401 0.67693 0.22318
 O289 O 0.74661 0.67859 0.29008
 O290 O 0.76850 0.67002 0.24367
 O291 O 0.68172 0.72607 0.27317
 O292 O 0.67412 0.76832 0.24904
 O293 O 0.73508 0.74607 0.33525
 O294 O 0.77837 0.77059 0.33667
 O295 O 0.74605 0.79688 0.19392
 O296 O 0.70866 0.76553 0.19047
 O297 O 0.81257 0.74329 0.20422
 O298 O 0.82066 0.70658 0.23642
 O299 O 0.80468 0.81183 0.25683
 O300 O 0.77682 0.82230 0.29494
 Zr301 Zr 0.76531 0.79746 0.26178
 O302 O 0.74232 0.77618 0.29033
 Zr303 Zr 0.80088 0.74328 0.24535
 O304 O 0.77965 0.71956 0.27372
 Zr305 Zr 0.74524 0.75781 0.21095
 O306 O 0.72161 0.73425 0.23747
 Zr307 Zr 0.76514 0.74403 0.30534
 O308 O 0.78935 0.76717 0.27895
 Zr309 Zr 0.70939 0.75795 0.27072
 O310 O 0.73048 0.78228 0.24264
 Zr311 Zr 0.74482 0.70355 0.25518
 O312 O 0.76768 0.72504 0.22578
 O313 O 0.77913 0.77494 0.22893
 O314 O 0.73100 0.72638 0.28787
 C315 C 0.75229 0.81996 0.20432
 C316 C 0.82699 0.80022 0.25099
 C317 C 0.79980 0.74757 0.18189
 C318 C 0.75547 0.68307 0.31434
 C319 C 0.70986 0.75123 0.33375
 C320 C 0.68360 0.70078 0.26815
 H321 H 0.73650 0.78861 0.30491
 H322 H 0.70611 0.72682 0.22723
 H323 H 0.78990 0.78589 0.21612
 H324 H 0.79154 0.70533 0.28084
 H325 H 0.81565 0.74557 0.31771
 H326 H 0.83356 0.72456 0.28164
 H327 H 0.67245 0.75586 0.23335
 H328 H 0.69928 0.77959 0.20115
 H329 H 0.76529 0.78545 0.33843
 H330 H 0.79028 0.81204 0.30550
 H331 H 0.72047 0.68621 0.21187
 H332 H 0.74238 0.71490 0.18132
 H333 H 0.72438 0.82902 0.26454
 H334 H 0.69548 0.80293 0.29400
 H335 H 0.80933 0.69675 0.22305
 H336 H 0.78296 0.66793 0.25734
 O337 O 0.75101 0.19406 0.81397
 O338 O 0.73081 0.17564 0.77472
 O339 O 0.82119 0.23510 0.77850
 O340 O 0.82872 0.26823 0.75036
 O341 O 0.77242 0.27339 0.84071
 O342 O 0.73076 0.29642 0.83957
 O343 O 0.75006 0.28266 0.69140
 O344 O 0.78632 0.25308 0.69324
 O345 O 0.68371 0.24080 0.72155
 O346 O 0.67464 0.21431 0.76313
 O347 O 0.69905 0.31786 0.75074
 O348 O 0.72999 0.33849 0.78127
 O349 O 0.73807 0.31867 0.71743
 O350 O 0.76432 0.33740 0.75898
 O351 O 0.67233 0.28064 0.75238
 O352 O 0.66671 0.24552 0.78761
 O353 O 0.71943 0.24243 0.69281
 O354 O 0.76211 0.21605 0.69542
 O355 O 0.74087 0.22957 0.84146
 O356 O 0.70527 0.26279 0.83908
 O357 O 0.80892 0.27438 0.81288
 O358 O 0.81342 0.30353 0.77116
 O359 O 0.79438 0.19615 0.78197
 O360 O 0.76351 0.17840 0.74814
 Zr361 Zr 0.75517 0.21067 0.77504
 O362 O 0.72997 0.22477 0.74385
 Zr363 Zr 0.79315 0.26599 0.77380
 O364 O 0.77041 0.28188 0.74141
 Zr365 Zr 0.74035 0.26287 0.81480
 O366 O 0.71541 0.27993 0.78484
 Zr367 Zr 0.75224 0.25068 0.71882
 O368 O 0.77831 0.23463 0.74866
 Zr369 Zr 0.69943 0.24901 0.76032
 O370 O 0.72238 0.23166 0.79194
 Zr371 Zr 0.73809 0.30366 0.75776
 O372 O 0.76240 0.28985 0.79039
 O373 O 0.77216 0.24036 0.79958
 O374 O 0.72050 0.27383 0.73364
 C375 C 0.74492 0.20431 0.83719
 C376 C 0.81913 0.20825 0.78201
 C377 C 0.79768 0.27654 0.83634
 C378 C 0.74353 0.30745 0.69442
 C379 C 0.69423 0.23950 0.69775
 C380 C 0.67602 0.30609 0.74940
 H381 H 0.72243 0.20930 0.73360
 H382 H 0.70118 0.29052 0.79391
 H383 H 0.78355 0.23241 0.81397
 H384 H 0.78201 0.29318 0.72975
 H385 H 0.80138 0.24460 0.70320
 H386 H 0.82331 0.27273 0.73156
 H387 H 0.66596 0.26230 0.79853
 H388 H 0.69477 0.24660 0.83374
 H389 H 0.74787 0.20231 0.69796
 H390 H 0.77738 0.18496 0.73532
 H391 H 0.71854 0.33281 0.79666
 H392 H 0.74111 0.31189 0.83233
 H393 H 0.71316 0.18106 0.78221
 H394 H 0.68211 0.20032 0.75093
 H395 H 0.80537 0.31564 0.78495
 H396 H 0.77689 0.33590 0.74347
 O397 O 0.23662 0.79841 0.78873
 O398 O 0.26450 0.81260 0.75156
 O399 O 0.16481 0.77231 0.74617
 O400 O 0.15359 0.74256 0.71432
 O401 O 0.19898 0.72428 0.80975
 O402 O 0.23614 0.69279 0.81018
 O403 O 0.23181 0.71186 0.66258
 O404 O 0.20009 0.74857 0.66398
 O405 O 0.30209 0.74046 0.69847
 O406 O 0.31184 0.76577 0.74206
 O407 O 0.27054 0.66799 0.72345
 O408 O 0.23457 0.65342 0.75287
 O409 O 0.23261 0.67448 0.68908
 O410 O 0.20329 0.65971 0.72799
 O411 O 0.30338 0.69954 0.72935
 O412 O 0.31319 0.73258 0.76538
 O413 O 0.26833 0.74781 0.66813
 O414 O 0.23303 0.77843 0.66562
 O415 O 0.23755 0.76074 0.81495
 O416 O 0.26670 0.72226 0.81479
 O417 O 0.16609 0.72857 0.77779
 O418 O 0.15835 0.70448 0.73501
 O419 O 0.19694 0.80445 0.75346
 O420 O 0.23307 0.81772 0.72324
 Zr421 Zr 0.23348 0.78343 0.74861
 O422 O 0.25756 0.76519 0.71850
 Zr423 Zr 0.18621 0.73637 0.74126
 O424 O 0.20799 0.71630 0.71080
 Zr425 Zr 0.23484 0.72854 0.78702
 O426 O 0.25899 0.70794 0.75855
 Zr427 Zr 0.23306 0.74388 0.69082
 O428 O 0.20871 0.76482 0.71904
 Zr429 Zr 0.28209 0.73559 0.73609
 O430 O 0.26027 0.75612 0.76694
 Zr431 Zr 0.23442 0.68897 0.72927
 O432 O 0.21019 0.70681 0.75973
 O433 O 0.20929 0.75682 0.77008
 O434 O 0.25884 0.71513 0.70720
 C435 C 0.23798 0.78643 0.81185
 C436 C 0.17231 0.79658 0.75134
 C437 C 0.17416 0.72470 0.80222
 C438 C 0.23155 0.68621 0.66587
 C439 C 0.29320 0.74524 0.67438
 C440 C 0.29530 0.67536 0.72448
 H441 H 0.26842 0.77916 0.70933
 H442 H 0.27043 0.69488 0.76825
 H443 H 0.19831 0.76617 0.78396
 H444 H 0.19534 0.70742 0.69802
 H445 H 0.18781 0.76186 0.67243
 H446 H 0.15909 0.73581 0.69622
 H447 H 0.30924 0.71672 0.77683
 H448 H 0.28081 0.73566 0.81032
 H449 H 0.24301 0.79289 0.67522
 H450 H 0.21892 0.81450 0.70938
 H451 H 0.24716 0.65635 0.76820
 H452 H 0.22275 0.68029 0.80202
 H453 H 0.27950 0.80393 0.76143
 H454 H 0.30865 0.78025 0.72870
 H455 H 0.16393 0.68946 0.74691
 H456 H 0.19052 0.66490 0.71349
 O457 O 0.26553 0.32603 0.70718
 O458 O 0.24358 0.34137 0.74765
 O459 O 0.33500 0.28577 0.73871
 O460 O 0.34316 0.25114 0.76652
 O461 O 0.28575 0.24895 0.67547
 O462 O 0.24355 0.22491 0.67663
 O463 O 0.26493 0.22868 0.82340
 O464 O 0.30283 0.25869 0.82241
 O465 O 0.19885 0.27319 0.79835
 O466 O 0.18943 0.30223 0.75884
 O467 O 0.21356 0.19774 0.76281
 O468 O 0.24553 0.18149 0.72746
 O469 O 0.25472 0.19443 0.79416
 O470 O 0.27715 0.17837 0.75272
 O471 O 0.18742 0.23514 0.76539
 O472 O 0.18051 0.27238 0.73246
 O473 O 0.23564 0.26991 0.82567
 O474 O 0.27369 0.29510 0.82642
 O475 O 0.25482 0.29202 0.67781
 O476 O 0.21906 0.25951 0.67804
 O477 O 0.32242 0.24635 0.70310
 O478 O 0.32994 0.21691 0.74239
 O479 O 0.30807 0.32267 0.73918
 O480 O 0.27584 0.33940 0.77321
 Zr481 Zr 0.26901 0.30741 0.74533
 O482 O 0.24505 0.29059 0.77616
 Zr483 Zr 0.30777 0.25324 0.74268
 O484 O 0.28532 0.23394 0.77338
 Zr485 Zr 0.25403 0.25752 0.70248
 O486 O 0.22925 0.23856 0.73143
 Zr487 Zr 0.26753 0.26290 0.79870
 O488 O 0.29281 0.28241 0.77014
 Zr489 Zr 0.21397 0.26748 0.75867
 O490 O 0.23614 0.28691 0.72760
 Zr491 Zr 0.25264 0.21301 0.75581
 O492 O 0.27701 0.22972 0.72472
 O493 O 0.28589 0.27963 0.71877
 O494 O 0.23551 0.24063 0.78268
 C495 C 0.25980 0.31686 0.68335
 C496 C 0.33123 0.31137 0.73762
 C497 C 0.31099 0.24530 0.67960
 C498 C 0.25962 0.20389 0.81806
 C499 C 0.21036 0.27333 0.82180
 C500 C 0.19081 0.20954 0.76610
 H501 H 0.23821 0.30518 0.78802
 H502 H 0.21473 0.22863 0.72188
 H503 H 0.29713 0.28834 0.70470
 H504 H 0.29717 0.22191 0.78393
 H505 H 0.31646 0.27107 0.81467
 H506 H 0.33796 0.24397 0.78449
 H507 H 0.17949 0.25639 0.72039
 H508 H 0.20808 0.27441 0.68546
 H509 H 0.28641 0.30769 0.81767
 H510 H 0.29263 0.33538 0.78322
 H511 H 0.22966 0.18642 0.71642
 H512 H 0.25503 0.20958 0.68202
 H513 H 0.22672 0.33638 0.73808
 H514 H 0.19786 0.31567 0.77114
 H515 H 0.32019 0.20415 0.73030
 H516 H 0.29325 0.18140 0.76421
 O517 O 0.75243 0.69019 0.70429
 O518 O 0.77555 0.67429 0.74458
 O519 O 0.68340 0.72963 0.73848
 O520 O 0.67573 0.76312 0.76793
 O521 O 0.73171 0.76866 0.67654
 O522 O 0.77440 0.79226 0.67805
 O523 O 0.75341 0.78550 0.82450
 O524 O 0.71589 0.75413 0.82225
 O525 O 0.81985 0.74111 0.79768
 O526 O 0.82893 0.71264 0.75721
 O527 O 0.80502 0.81710 0.76426
 O528 O 0.77242 0.83391 0.72955
 O529 O 0.76487 0.81950 0.79591
 O530 O 0.74173 0.83688 0.75582
 O531 O 0.83126 0.77973 0.76566
 O532 O 0.83794 0.74305 0.73190
 O533 O 0.78354 0.74429 0.82554
 O534 O 0.74606 0.71887 0.82591
 O535 O 0.76324 0.72532 0.67674
 O536 O 0.79819 0.75771 0.67728
 O537 O 0.69522 0.77016 0.70440
 O538 O 0.68826 0.79823 0.74463
 O539 O 0.71033 0.69274 0.73738
 O540 O 0.74283 0.67480 0.76968
 Zr541 Zr 0.74952 0.70785 0.74346
 O542 O 0.77354 0.72407 0.77501
 Zr543 Zr 0.71062 0.76203 0.74338
 O544 O 0.73341 0.78080 0.77442
 Zr545 Zr 0.76390 0.75898 0.70262
 O546 O 0.78914 0.77702 0.73194
 Zr547 Zr 0.75143 0.75137 0.79877
 O548 O 0.72611 0.73224 0.76956
 Zr549 Zr 0.80456 0.74751 0.75820
 O550 O 0.78216 0.72897 0.72642
 Zr551 Zr 0.76594 0.80193 0.75716
 O552 O 0.74107 0.78607 0.72593
 O553 O 0.73223 0.73634 0.71818
 O554 O 0.78330 0.77389 0.78316
 C555 C 0.75826 0.70032 0.68095
 C556 C 0.68715 0.70407 0.73660
 C557 C 0.70651 0.77224 0.68099
 C558 C 0.75945 0.81021 0.81958
 C559 C 0.80875 0.74085 0.82131
 C560 C 0.82782 0.80532 0.76707
 H561 H 0.78047 0.70926 0.78640
 H562 H 0.80358 0.78712 0.72261
 H563 H 0.72083 0.72804 0.70385
 H564 H 0.72168 0.79267 0.78536
 H565 H 0.70278 0.74124 0.81425
 H566 H 0.68112 0.77044 0.78589
 H567 H 0.83871 0.75910 0.72007
 H568 H 0.80993 0.74343 0.68464
 H569 H 0.73488 0.70539 0.81624
 H570 H 0.72680 0.67901 0.78079
 H571 H 0.78860 0.82960 0.71870
 H572 H 0.76272 0.80737 0.68373
 H573 H 0.79190 0.67945 0.73434
 H574 H 0.82062 0.69906 0.76926
 H575 H 0.69808 0.81151 0.73338
 H576 H 0.72567 0.83356 0.76718
 O577 O 0.23747 0.68742 0.28695
 O578 O 0.21085 0.68211 0.24728
 O579 O 0.31400 0.71042 0.25490
 O580 O 0.33088 0.74356 0.22965
 O581 O 0.28031 0.75321 0.32360
 O582 O 0.24662 0.78620 0.32859
 O583 O 0.25800 0.79138 0.17949
 O584 O 0.28489 0.75344 0.17387
 O585 O 0.18383 0.76514 0.20752
 O586 O 0.16818 0.73722 0.24490
 O587 O 0.22223 0.82972 0.24617
 O588 O 0.25920 0.83414 0.27894
 O589 O 0.26001 0.82441 0.21165
 O590 O 0.28977 0.82881 0.25288
 O591 O 0.18594 0.80180 0.24311
 O592 O 0.17112 0.76489 0.27484
 O593 O 0.21761 0.75964 0.17691
 O594 O 0.25204 0.72390 0.17248
 O595 O 0.23932 0.71945 0.32019
 O596 O 0.21282 0.76071 0.32456
 O597 O 0.31535 0.74846 0.29424
 O598 O 0.32826 0.77867 0.25617
 O599 O 0.27787 0.68216 0.25233
 O600 O 0.24204 0.67930 0.21892
 Zr601 Zr 0.24450 0.70813 0.25067
 O602 O 0.22404 0.73367 0.22380
 Zr603 Zr 0.29719 0.74932 0.25520
 O604 O 0.27947 0.77620 0.22727
 Zr605 Zr 0.24628 0.75553 0.29859
 O606 O 0.22704 0.78370 0.27335
 Zr607 Zr 0.25236 0.75578 0.20143
 O608 O 0.27314 0.72823 0.22658
 Zr609 Zr 0.20235 0.76284 0.24567
 O610 O 0.21961 0.73469 0.27266
 Zr611 Zr 0.25540 0.80370 0.24882
 O612 O 0.27509 0.77827 0.27707
 O613 O 0.26987 0.72751 0.27822
 O614 O 0.22929 0.78451 0.22169
 C615 C 0.23645 0.69496 0.31195
 C616 C 0.30330 0.68676 0.25375
 C617 C 0.30541 0.75052 0.31835
 C618 C 0.26035 0.81615 0.18681
 C619 C 0.19277 0.76332 0.18313
 C620 C 0.19687 0.82531 0.24377
 H621 H 0.21214 0.72269 0.21198
 H622 H 0.21672 0.79644 0.28474
 H623 H 0.27895 0.71482 0.29066
 H624 H 0.29362 0.78534 0.21659
 H625 H 0.29747 0.73990 0.18125
 H626 H 0.32726 0.75331 0.21255
 H627 H 0.17492 0.78034 0.28708
 H628 H 0.19848 0.74852 0.31772
 H629 H 0.23524 0.71341 0.17479
 H630 H 0.25709 0.68319 0.20635
 H631 H 0.24422 0.83180 0.29195
 H632 H 0.26029 0.79956 0.32278
 H633 H 0.19612 0.69073 0.25763
 H634 H 0.17182 0.72243 0.23188
 H635 H 0.32360 0.79178 0.27065
 H636 H 0.30247 0.82405 0.23817
 O637 O 0.74635 0.30961 0.30009
 O638 O 0.77000 0.32800 0.26228
 O639 O 0.67580 0.27581 0.26212
 O640 O 0.66525 0.24448 0.23207
 O641 O 0.72144 0.23140 0.32215
 O642 O 0.76142 0.20479 0.31885
 O643 O 0.74367 0.22573 0.17210
 O644 O 0.70889 0.25743 0.17547
 O645 O 0.81253 0.26229 0.20449
 O646 O 0.82428 0.28481 0.24565
 O647 O 0.79012 0.18470 0.22909
 O648 O 0.75828 0.16588 0.26023
 O649 O 0.75108 0.18829 0.19743
 O650 O 0.72440 0.16991 0.23769
 O651 O 0.81996 0.21938 0.23244
 O652 O 0.82764 0.25333 0.27134
 O653 O 0.77643 0.26486 0.17614
 O654 O 0.73548 0.29283 0.17925
 O655 O 0.75551 0.27202 0.32475
 O656 O 0.78886 0.23716 0.32096
 O657 O 0.68512 0.23365 0.29403
 O658 O 0.67750 0.20741 0.25073
 O659 O 0.70398 0.31201 0.26529
 O660 O 0.73803 0.32944 0.23478
 Zr661 Zr 0.74282 0.29519 0.25970
 O662 O 0.76695 0.28022 0.22777
 Zr663 Zr 0.70100 0.24287 0.25540
 O664 O 0.72242 0.22650 0.22236
 Zr665 Zr 0.75402 0.24024 0.29643
 O666 O 0.77768 0.22257 0.26574
 Zr667 Zr 0.74302 0.25694 0.20122
 O668 O 0.71827 0.27392 0.23183
 Zr669 Zr 0.79583 0.25307 0.24263
 O670 O 0.77416 0.27100 0.27513
 Zr671 Zr 0.75284 0.20183 0.23795
 O672 O 0.72966 0.21611 0.27101
 O673 O 0.72386 0.26566 0.28249
 O674 O 0.77278 0.23088 0.21500
 C675 C 0.75180 0.29748 0.32253
 C676 C 0.68038 0.30109 0.26516
 C677 C 0.69604 0.23012 0.31750
 C678 C 0.74754 0.20031 0.17463
 C679 C 0.80181 0.26602 0.18101
 C680 C 0.81396 0.19453 0.22770
 H681 H 0.77562 0.29550 0.21836
 H682 H 0.79111 0.21056 0.27415
 H683 H 0.71288 0.27374 0.29717
 H684 H 0.71000 0.21655 0.21015
 H685 H 0.69450 0.26686 0.18561
 H686 H 0.67022 0.24043 0.21302
 H687 H 0.82878 0.23511 0.27932
 H688 H 0.80053 0.25270 0.31636
 H689 H 0.74984 0.30603 0.18362
 H690 H 0.72430 0.32461 0.22095
 H691 H 0.77151 0.16976 0.27481
 H692 H 0.74923 0.19074 0.31137
 H693 H 0.78645 0.32107 0.27116
 H694 H 0.81533 0.30140 0.23934
 H695 H 0.68481 0.19388 0.26347
 H696 H 0.71133 0.17330 0.22290
 C697 C 0.24003 0.06898 0.03734
 C698 C 0.24140 0.06028 0.06435
 C699 C 0.24064 0.08020 0.08697
 C700 C 0.25704 0.07662 0.10993
 C701 C 0.25912 0.09688 0.12982
 C702 C 0.24456 0.12100 0.12713
 C703 C 0.22721 0.12394 0.10484
 C704 C 0.22501 0.10369 0.08514
 C705 C 0.24787 0.14404 0.14616
 C706 C 0.25654 0.14153 0.17303
 H707 H 0.24655 0.03968 0.06906
 H708 H 0.26919 0.05866 0.11186
 H709 H 0.27294 0.09402 0.14657
 H710 H 0.21552 0.14216 0.10247
 H711 H 0.21139 0.10670 0.06823
 H712 H 0.24191 0.16377 0.13902
 H713 H 0.23795 0.09048 0.03430
 H714 H 0.26014 0.12177 0.18147
 C715 C 0.72715 0.57006 0.55326
 C716 C 0.73599 0.59675 0.55530
 C717 C 0.73903 0.61143 0.58149
 C718 C 0.73937 0.63967 0.58103
 C719 C 0.74219 0.65453 0.60505
 C720 C 0.74523 0.64144 0.63021
 C721 C 0.74472 0.61319 0.63078
 C722 C 0.74186 0.59827 0.60667
 C723 C 0.74821 0.65680 0.65602
 C724 C 0.75858 0.68295 0.65668
 H725 H 0.74030 0.60786 0.53693
 H726 H 0.73707 0.65033 0.56198
 H727 H 0.74143 0.67626 0.60377
 H728 H 0.74689 0.60263 0.64989
 H729 H 0.74237 0.57655 0.60795
 H730 H 0.74216 0.64729 0.67486
 H731 H 0.72301 0.55887 0.57161
 H732 H 0.76619 0.69187 0.63817
 C733 C 0.73343 0.95069 0.07626
 C734 C 0.74322 0.94595 0.10256
 C735 C 0.74362 0.91912 0.11562
 C736 C 0.76247 0.91476 0.13637
 C737 C 0.76305 0.89039 0.15029
 C738 C 0.74434 0.86987 0.14419
 C739 C 0.72594 0.87382 0.12289
 C740 C 0.72544 0.89831 0.10877
 C741 C 0.74366 0.84456 0.16010
 C742 C 0.75131 0.84426 0.18742
 H743 H 0.75354 0.96184 0.11352
 H744 H 0.77688 0.93033 0.14187
 H745 H 0.77827 0.88772 0.16580
 H746 H 0.71146 0.85823 0.11769
 H747 H 0.71036 0.90110 0.09316
 H748 H 0.73591 0.82634 0.15062
 H749 H 0.72643 0.93350 0.06452
 H750 H 0.75680 0.86302 0.19736
 C751 C 0.25290 0.44582 0.55822
 C752 C 0.26232 0.44772 0.58492
 C753 C 0.26578 0.42433 0.60299
 C754 C 0.25210 0.39986 0.59843
 C755 C 0.25324 0.37927 0.61766
 C756 C 0.26818 0.38273 0.64179
 C757 C 0.28220 0.40700 0.64602
 C758 C 0.28095 0.42761 0.62686
 C759 C 0.26851 0.36238 0.66368
 C760 C 0.25949 0.33587 0.66056
 H761 H 0.26656 0.46750 0.59338
 H762 H 0.23950 0.39692 0.58069
 H763 H 0.24153 0.36125 0.61383
 H764 H 0.29376 0.41026 0.66447
 H765 H 0.29142 0.44640 0.63097
 H766 H 0.27659 0.36860 0.68324
 H767 H 0.25230 0.42649 0.54791
 H768 H 0.25297 0.32834 0.64094
 C769 C 0.72162 0.04750 0.92963
 C770 C 0.73129 0.07318 0.93638
 C771 C 0.73334 0.09510 0.91602
 C772 C 0.73474 0.12210 0.92469
 C773 C 0.73805 0.14297 0.90579
 C774 C 0.74029 0.13708 0.87783
 C775 C 0.73919 0.11006 0.86934
 C776 C 0.73586 0.08936 0.88809
 C777 C 0.74440 0.15787 0.85665
 C778 C 0.74228 0.18575 0.86046
 H779 H 0.73915 0.07696 0.95661
 H780 H 0.73336 0.12704 0.94613
 H781 H 0.73925 0.16345 0.91329
 H782 H 0.74120 0.10485 0.84800
 H783 H 0.73612 0.06885 0.88055
 H784 H 0.74853 0.15051 0.83628
 H785 H 0.71288 0.04413 0.90971
 H786 H 0.73750 0.19413 0.88019
 C787 C 0.24106 0.54753 0.41511
 C788 C 0.25050 0.55205 0.38882
 C789 C 0.24537 0.57703 0.37352
 C790 C 0.24024 0.60194 0.38629
 C791 C 0.23515 0.62490 0.37070
 C792 C 0.23520 0.62328 0.34213
 C793 C 0.24029 0.59838 0.32956
 C794 C 0.24554 0.57560 0.34506
 C795 C 0.23076 0.64677 0.32439
 C796 C 0.23349 0.67369 0.33252
 H797 H 0.26059 0.53594 0.37807
 H798 H 0.24050 0.60396 0.40820
 H799 H 0.23110 0.64366 0.38115
 H800 H 0.24055 0.59658 0.30758
 H801 H 0.24946 0.55667 0.33474
 H802 H 0.22790 0.64247 0.30293
 H803 H 0.23170 0.56374 0.42637
 H804 H 0.23626 0.67907 0.35368
 C805 C 0.24599 0.92268 0.93796
 C806 C 0.24032 0.89508 0.93583
 C807 C 0.23927 0.87967 0.90983
 C808 C 0.22886 0.85332 0.91022
 C809 C 0.22852 0.83743 0.88667
 C810 C 0.23885 0.84746 0.86209
 C811 C 0.24881 0.87397 0.86149
 C812 C 0.24926 0.88988 0.88512
 C813 C 0.23900 0.83102 0.83677
 C814 C 0.23930 0.80286 0.83687
 H815 H 0.23584 0.88400 0.95419
 H816 H 0.22095 0.84493 0.92889
 H817 H 0.21982 0.81744 0.88781
 H818 H 0.25676 0.88222 0.84277
 H819 H 0.25795 0.90983 0.88388
 H820 H 0.23976 0.84146 0.81748
 H821 H 0.24736 0.93465 0.91970
 H822 H 0.24043 0.79222 0.85600
 C823 C 0.72851 0.42462 0.45446
 C824 C 0.73690 0.39787 0.45220
 C825 C 0.73968 0.38362 0.42578
 C826 C 0.73827 0.35540 0.42546
 C827 C 0.74026 0.34107 0.40103
 C828 C 0.74420 0.35468 0.37628
 C829 C 0.74575 0.38291 0.37657
 C830 C 0.74373 0.39728 0.40105
 C831 C 0.74579 0.34012 0.34991
 C832 C 0.75312 0.31309 0.34799
 H833 H 0.74070 0.38638 0.47043
 H834 H 0.73509 0.34439 0.44417
 H835 H 0.73805 0.31940 0.40169
 H836 H 0.74875 0.39388 0.35781
 H837 H 0.74573 0.41897 0.40043
 H838 H 0.74118 0.35107 0.33147
 H839 H 0.72472 0.43598 0.43615
 H840 H 0.75938 0.30240 0.36603
 C841 C 0.08350 0.24400 0.04541
 C842 C 0.11088 0.23724 0.04474
 C843 C 0.12768 0.23295 0.06929
 C844 C 0.12101 0.24384 0.09488
 C845 C 0.13878 0.24153 0.11690
 C846 C 0.16359 0.22827 0.11377
 C847 C 0.17001 0.21720 0.08829
 C848 C 0.15230 0.21952 0.06634
 C849 C 0.18395 0.22690 0.13584
 C850 C 0.17840 0.23147 0.16332
 H851 H 0.12084 0.23426 0.02547
 H852 H 0.10265 0.25509 0.09777
 H853 H 0.13335 0.25106 0.13592
 H854 H 0.18901 0.20702 0.08523
 H855 H 0.15809 0.21116 0.04681
 H856 H 0.20434 0.22170 0.13012
 H857 H 0.07315 0.24247 0.06472
 H858 H 0.15797 0.23492 0.16995
 C859 C 0.56885 0.77256 0.56038
 C860 C 0.59473 0.78346 0.56309
 C861 C 0.61019 0.78459 0.58890
 C862 C 0.63585 0.79658 0.58859
 C863 C 0.65250 0.79569 0.61149
 C864 C 0.64382 0.78266 0.63524
 C865 C 0.61777 0.77173 0.63604
 C866 C 0.60115 0.77245 0.61308
 C867 C 0.66148 0.77968 0.65926
 C868 C 0.68947 0.77834 0.65735
 H869 H 0.60486 0.79058 0.54500
 H870 H 0.64331 0.80619 0.57034
 H871 H 0.67214 0.80512 0.61044
 H872 H 0.61057 0.76177 0.65420
 H873 H 0.58172 0.76274 0.61434
 H874 H 0.65200 0.77595 0.67873
 H875 H 0.55689 0.76848 0.57823
 H876 H 0.69920 0.78016 0.63776
 C877 C 0.05365 0.73649 0.93849
 C878 C 0.05800 0.74233 0.91113
 C879 C 0.08440 0.74055 0.89734
 C880 C 0.08633 0.75072 0.87087
 C881 C 0.10976 0.74735 0.85578
 C882 C 0.13182 0.73350 0.86675
 C883 C 0.13056 0.72441 0.89366
 C884 C 0.10692 0.72764 0.90882
 C885 C 0.15582 0.72827 0.84987
 C886 C 0.15270 0.72206 0.82240
 H887 H 0.04103 0.74858 0.89889
 H888 H 0.06944 0.76092 0.86158
 H889 H 0.11049 0.75543 0.83537
 H890 H 0.14746 0.71392 0.90256
 H891 H 0.10623 0.71921 0.92904
 H892 H 0.17570 0.73013 0.85878
 H893 H 0.07060 0.73357 0.95197
 H894 H 0.13257 0.71871 0.81452
 C895 C 0.55213 0.25412 0.42737
 C896 C 0.57574 0.23915 0.42879
 C897 C 0.59521 0.23769 0.40602
 C898 C 0.62128 0.22812 0.41091
 C899 C 0.63964 0.22520 0.38953
 C900 C 0.63212 0.23170 0.36270
 C901 C 0.60590 0.24081 0.35784
 C902 C 0.58763 0.24370 0.37912
 C903 C 0.65061 0.22966 0.33916
 C904 C 0.67838 0.22608 0.34115
 H905 H 0.57905 0.22638 0.44630
 H906 H 0.62743 0.22280 0.43134
 H907 H 0.65941 0.21760 0.39423
 H908 H 0.59943 0.24569 0.33739
 H909 H 0.56743 0.24994 0.37411
 H910 H 0.64209 0.23332 0.31921
 H911 H 0.54876 0.26748 0.41041
 H912 H 0.68788 0.22307 0.36068
 C913 C 0.94755 0.74738 0.07999
 C914 C 0.92103 0.74465 0.07072
 C915 C 0.89912 0.74080 0.09078
 C916 C 0.87442 0.75405 0.08787
 C917 C 0.85488 0.75240 0.10843
 C918 C 0.85974 0.73705 0.13199
 C919 C 0.88390 0.72273 0.13400
 C920 C 0.90327 0.72445 0.11365
 C921 C 0.84150 0.73666 0.15583
 C922 C 0.81514 0.74629 0.15622
 H923 H 0.91602 0.74566 0.04934
 H924 H 0.87071 0.76658 0.07029
 H925 H 0.83661 0.76389 0.10617
 H926 H 0.88810 0.71056 0.15173
 H927 H 0.92178 0.71328 0.11605
 H928 H 0.84961 0.72845 0.17450
 H929 H 0.95009 0.74913 0.10187
 H930 H 0.80554 0.75304 0.13772
 C931 C 0.46223 0.24753 0.58002
 C932 C 0.43630 0.23876 0.57343
 C933 C 0.41519 0.23725 0.59458
 C934 C 0.38818 0.24201 0.58791
 C935 C 0.36833 0.24166 0.60815
 C936 C 0.37524 0.23605 0.63538
 C937 C 0.40212 0.23027 0.64166
 C938 C 0.42182 0.23073 0.62156
 C939 C 0.35583 0.23721 0.65821
 C940 C 0.32810 0.24077 0.65555
 H941 H 0.43147 0.23233 0.55291
 H942 H 0.38257 0.24673 0.56717
 H943 H 0.34792 0.24634 0.60236
 H944 H 0.40802 0.22562 0.66234
 H945 H 0.44227 0.22584 0.62723
 H946 H 0.36413 0.23588 0.67857
 H947 H 0.46589 0.25515 0.60040
 H948 H 0.31868 0.24117 0.63573
 C949 C 0.93430 0.26821 0.96043
 C950 C 0.90659 0.27333 0.95889
 C951 C 0.89092 0.27385 0.93319
 C952 C 0.86291 0.27077 0.93475
 C953 C 0.84697 0.27182 0.91139
 C954 C 0.85867 0.27647 0.88578
 C955 C 0.88673 0.27940 0.88412
 C956 C 0.90275 0.27828 0.90758
 C957 C 0.84234 0.27707 0.86048
 C958 C 0.81461 0.28152 0.86041
 H959 H 0.89510 0.27701 0.97710
 H960 H 0.85327 0.26726 0.95417
 H961 H 0.82560 0.26841 0.91360
 H962 H 0.89627 0.28283 0.86464
 H963 H 0.92417 0.28143 0.90551
 H964 H 0.85241 0.27312 0.84134
 H965 H 0.94486 0.26422 0.94161
 H966 H 0.80439 0.28672 0.87910
 C967 C 0.43369 0.75178 0.44918
 C968 C 0.41136 0.73631 0.44139
 C969 C 0.39710 0.73865 0.41495
 C970 C 0.37158 0.72666 0.41257
 C971 C 0.35678 0.72877 0.38855
 C972 C 0.36715 0.74298 0.36620
 C973 C 0.39313 0.75403 0.36803
 C974 C 0.40797 0.75205 0.39223
 C975 C 0.35104 0.74637 0.34105
 C976 C 0.32313 0.74877 0.34224
 H977 H 0.40331 0.72191 0.45574
 H978 H 0.36288 0.71582 0.42952
 H979 H 0.33724 0.71910 0.38752
 H980 H 0.40172 0.76467 0.35091
 H981 H 0.42786 0.76090 0.39283
 H982 H 0.36126 0.74821 0.32170
 H983 H 0.44290 0.76548 0.43490
 H984 H 0.31344 0.74940 0.36195
 C985 C 0.06599 0.05339 0.22780
 C986 C 0.09379 0.05551 0.22766
 C987 C 0.10792 0.08138 0.23170
 C988 C 0.13605 0.08130 0.23211
 C989 C 0.15037 0.10510 0.23637
 C990 C 0.13680 0.12959 0.24057
 C991 C 0.10863 0.12993 0.23935
 C992 C 0.09421 0.10595 0.23514
 C993 C 0.15210 0.15477 0.24532
 C994 C 0.17678 0.15414 0.25868
 H995 H 0.10583 0.03759 0.22475
 H996 H 0.14705 0.06272 0.22915
 H997 H 0.17211 0.10427 0.23599
 H998 H 0.09782 0.14865 0.24207
 H999 H 0.07245 0.10665 0.23468
 H1000 H 0.14474 0.17344 0.23682
 H1001 H 0.05921 0.03862 0.22571
 H1002 H 0.18312 0.13562 0.26831
 C1003 C 0.58516 0.55204 0.71625
 C1004 C 0.58034 0.57858 0.72443
 C1005 C 0.60208 0.59927 0.72499
 C1006 C 0.59560 0.62679 0.72440
 C1007 C 0.61588 0.64655 0.72585
 C1008 C 0.64309 0.63906 0.72827
 C1009 C 0.64941 0.61156 0.72905
 C1010 C 0.62928 0.59195 0.72765
 C1011 C 0.66570 0.65867 0.73028
 C1012 C 0.66320 0.68661 0.73314
 H1013 H 0.56062 0.58400 0.73195
 H1014 H 0.57480 0.63299 0.72271
 H1015 H 0.61004 0.66747 0.72504
 H1016 H 0.67011 0.60513 0.73118
 H1017 H 0.63522 0.57111 0.72944
 H1018 H 0.68581 0.65031 0.73029
 H1019 H 0.60456 0.54696 0.70775
 H1020 H 0.64362 0.69598 0.73342
 C1021 C 0.95583 0.08356 0.79502
 C1022 C 0.95309 0.11136 0.79445
 C1023 C 0.92648 0.12443 0.79563
 C1024 C 0.92517 0.15254 0.79363
 C1025 C 0.90036 0.16552 0.79269
 C1026 C 0.87622 0.15057 0.79368
 C1027 C 0.87750 0.12248 0.79640
 C1028 C 0.90239 0.10948 0.79737
 C1029 C 0.84973 0.16380 0.79116
 C1030 C 0.84808 0.19125 0.78645
 H1031 H 0.97070 0.12395 0.79147
 H1032 H 0.94340 0.16450 0.79229
 H1033 H 0.90019 0.18724 0.79077
 H1034 H 0.85923 0.11054 0.79730
 H1035 H 0.90271 0.08773 0.79895
 H1036 H 0.83146 0.15181 0.79222
 H1037 H 0.97063 0.07722 0.79221
 H1038 H 0.83300 0.19809 0.78444
 C1039 C 0.45038 0.58024 0.27980
 C1040 C 0.42622 0.57849 0.26535
 C1041 C 0.40601 0.60050 0.26524
 C1042 C 0.37977 0.59511 0.25601
 C1043 C 0.36075 0.61579 0.25409
 C1044 C 0.36768 0.64247 0.26129
 C1045 C 0.39396 0.64782 0.27034
 C1046 C 0.41290 0.62723 0.27223
 C1047 C 0.34880 0.66549 0.25899
 C1048 C 0.32108 0.66304 0.25478
 H1049 H 0.42278 0.56118 0.25225
 H1050 H 0.37404 0.57484 0.25001
 H1051 H 0.34096 0.61074 0.24643
 H1052 H 0.40002 0.66817 0.27571
 H1053 H 0.43309 0.63271 0.27834
 H1054 H 0.35716 0.68555 0.26159
 H1055 H 0.45386 0.59705 0.29346
 H1056 H 0.31174 0.64338 0.25325
 C1057 C 0.06044 0.93284 0.78973
 C1058 C 0.06111 0.90497 0.79173
 C1059 C 0.08616 0.88944 0.78880
 C1060 C 0.08478 0.86135 0.79108
 C1061 C 0.10717 0.84557 0.78535
 C1062 C 0.13141 0.85758 0.77688
 C1063 C 0.13335 0.88577 0.77613
 C1064 C 0.11085 0.90165 0.78192
 C1065 C 0.15455 0.84092 0.76853
 C1066 C 0.15062 0.81588 0.75616
 H1067 H 0.04245 0.89382 0.79384
 H1068 H 0.06611 0.85151 0.79670
 H1069 H 0.10535 0.82392 0.78734
 H1070 H 0.15197 0.89544 0.77009
 H1071 H 0.11258 0.92333 0.78017
 H1072 H 0.17477 0.84860 0.77170
 H1073 H 0.04607 0.94043 0.78830
 H1074 H 0.13038 0.80918 0.75141
 C1075 C 0.55044 0.42958 0.27028
 C1076 C 0.55385 0.40275 0.26284
 C1077 C 0.58010 0.38878 0.26443
 C1078 C 0.58180 0.36233 0.25448
 C1079 C 0.60612 0.34842 0.25515
 C1080 C 0.62945 0.36050 0.26617
 C1081 C 0.62792 0.38717 0.27574
 C1082 C 0.60345 0.40118 0.27502
 C1083 C 0.65544 0.34578 0.26709
 C1084 C 0.65615 0.31771 0.26859
 H1085 H 0.53684 0.39176 0.25444
 H1086 H 0.56425 0.35242 0.24587
 H1087 H 0.60660 0.32835 0.24647
 H1088 H 0.64562 0.39708 0.28402
 H1089 H 0.60286 0.42165 0.28271
 H1090 H 0.67412 0.35711 0.26661
 H1091 H 0.53514 0.43677 0.26809
 H1092 H 0.63743 0.30677 0.27111
 C1093 C 0.91695 0.95586 0.23454
 C1094 C 0.92642 0.92946 0.23734
 C1095 C 0.90819 0.90700 0.24451
 C1096 C 0.91263 0.88128 0.23345
 C1097 C 0.89450 0.86021 0.23841
 C1098 C 0.87180 0.86452 0.25492
 C1099 C 0.86821 0.88995 0.26699
 C1100 C 0.88619 0.91096 0.26190
 C1101 C 0.85039 0.84407 0.25880
 C1102 C 0.85120 0.81739 0.24954
 H1103 H 0.94670 0.92430 0.23149
 H1104 H 0.92964 0.87775 0.22018
 H1105 H 0.89804 0.84101 0.22863
 H1106 H 0.85109 0.89377 0.28006
 H1107 H 0.88273 0.93032 0.27150
 H1108 H 0.83227 0.85089 0.26890
 H1109 H 0.89551 0.95901 0.23689
 H1110 H 0.86931 0.80899 0.24092
 C1111 C 0.43266 0.46270 0.70869
 C1112 C 0.43629 0.43789 0.72153
 C1113 C 0.41501 0.41669 0.72210
 C1114 C 0.42183 0.39005 0.72868
 C1115 C 0.40188 0.37005 0.73097
 C1116 C 0.37460 0.37643 0.72687
 C1117 C 0.36788 0.40306 0.72033
 C1118 C 0.38769 0.42293 0.71809
 C1119 C 0.35223 0.35675 0.73020
 C1120 C 0.35504 0.32896 0.73393
 H1121 H 0.45464 0.43442 0.73288
 H1122 H 0.44264 0.38475 0.73231
 H1123 H 0.40798 0.34993 0.73646
 H1124 H 0.34705 0.40870 0.71737
 H1125 H 0.38121 0.44329 0.71412
 H1126 H 0.33202 0.36483 0.72946
 H1127 H 0.41477 0.46591 0.69661
 H1128 H 0.37469 0.31972 0.73377
 C1129 C 0.07753 0.27449 0.94885
 C1130 C 0.10469 0.28123 0.94573
 C1131 C 0.11878 0.28245 0.91918
 C1132 C 0.14446 0.29430 0.91832
 C1133 C 0.15964 0.29379 0.89444
 C1134 C 0.14956 0.28109 0.87086
 C1135 C 0.12351 0.27008 0.87137
 C1136 C 0.10830 0.27053 0.89532
 C1137 C 0.16584 0.27867 0.84573
 C1138 C 0.19391 0.27759 0.84629
 H1139 H 0.11648 0.28582 0.96372
 H1140 H 0.15298 0.30372 0.93633
 H1141 H 0.17926 0.30333 0.89459
 H1142 H 0.11525 0.26030 0.85343
 H1143 H 0.08884 0.26073 0.89516
 H1144 H 0.15543 0.27553 0.82658
 H1145 H 0.06460 0.27345 0.93115
 H1146 H 0.20440 0.27852 0.86559
 C1147 C 0.57828 0.74703 0.46167
 C1148 C 0.60291 0.76003 0.45751
 C1149 C 0.61903 0.75721 0.43245
 C1150 C 0.64640 0.76415 0.43345
 C1151 C 0.66224 0.76284 0.41007
 C1152 C 0.65091 0.75459 0.38513
 C1153 C 0.62346 0.74802 0.38403
 C1154 C 0.60763 0.74925 0.40743
 C1155 C 0.66676 0.75381 0.35976
 C1156 C 0.69468 0.75123 0.35932
 H1157 H 0.61087 0.77325 0.47318
 H1158 H 0.65554 0.77079 0.45238
 H1159 H 0.68309 0.76897 0.41158
 H1160 H 0.61420 0.74205 0.36494
 H1161 H 0.58642 0.74466 0.40556
 H1162 H 0.65587 0.75444 0.34064
 H1163 H 0.57007 0.73395 0.44604
 H1164 H 0.70578 0.74839 0.37804
 C1165 C 0.95645 0.72302 0.92792
 C1166 C 0.92918 0.72730 0.93339
 C1167 C 0.90950 0.72967 0.91072
 C1168 C 0.88255 0.72196 0.91440
 C1169 C 0.86404 0.72384 0.89288
 C1170 C 0.87220 0.73382 0.86737
 C1171 C 0.89899 0.74198 0.86399
 C1172 C 0.91733 0.74024 0.88539
 C1173 C 0.85387 0.73578 0.84362
 C1174 C 0.82588 0.73668 0.84545
 H1175 H 0.92202 0.72986 0.95400
 H1176 H 0.87594 0.71403 0.93377
 H1177 H 0.84364 0.71697 0.89621
 H1178 H 0.90576 0.75002 0.84471
 H1179 H 0.93759 0.74757 0.88204
 H1180 H 0.86302 0.73827 0.82379
 H1181 H 0.96157 0.71850 0.90696
 H1182 H 0.81617 0.73580 0.86511
 C1183 C 0.45597 0.22847 0.43145
 C1184 C 0.45545 0.21858 0.40481
 C1185 C 0.43176 0.21969 0.38669
 C1186 C 0.40979 0.23668 0.39197
 C1187 C 0.38920 0.23938 0.37280
 C1188 C 0.39018 0.22512 0.34800
 C1189 C 0.41202 0.20805 0.34291
 C1190 C 0.43257 0.20536 0.36204
 C1191 C 0.36952 0.22814 0.32660
 C1192 C 0.34362 0.23763 0.33152
 H1193 H 0.47388 0.21065 0.39625
 H1194 H 0.40887 0.24876 0.41031
 H1195 H 0.37315 0.25337 0.37716
 H1196 H 0.41332 0.19695 0.32392
 H1197 H 0.44944 0.19242 0.35733
 H1198 H 0.37447 0.22111 0.30631
 H1199 H 0.43741 0.23282 0.44202
 H1200 H 0.33737 0.24283 0.35194
 C1201 C 0.04620 0.74423 0.07987
 C1202 C 0.05045 0.76165 0.10191
 C1203 C 0.07640 0.76515 0.11652
 C1204 C 0.07800 0.78512 0.13679
 C1205 C 0.10142 0.78862 0.15211
 C1206 C 0.12395 0.77238 0.14740
 C1207 C 0.12272 0.75266 0.12679
 C1208 C 0.09915 0.74902 0.11152
 C1209 C 0.14708 0.77483 0.16621
 C1210 C 0.17286 0.76496 0.16100
 H1211 H 0.03395 0.77433 0.10836
 H1212 H 0.06086 0.79784 0.14115
 H1213 H 0.10178 0.80380 0.16803
 H1214 H 0.13946 0.73931 0.12310
 H1215 H 0.09887 0.73314 0.09643
 H1216 H 0.14330 0.78438 0.18572
 H1217 H 0.06279 0.73307 0.07132
 H1218 H 0.17829 0.75783 0.14092
 C1219 C 0.56064 0.23476 0.57485
 C1220 C 0.56549 0.25021 0.59818
 C1221 C 0.58761 0.24560 0.61757
 C1222 C 0.61225 0.23384 0.61016
 C1223 C 0.63240 0.23006 0.62977
 C1224 C 0.62795 0.23776 0.65698
 C1225 C 0.60328 0.24924 0.66420
 C1226 C 0.58349 0.25341 0.64467
 C1227 C 0.64814 0.23433 0.67865
 C1228 C 0.67588 0.23555 0.67449
 H1229 H 0.55061 0.26500 0.60410
 H1230 H 0.61613 0.22789 0.58934
 H1231 H 0.65115 0.22085 0.62371
 H1232 H 0.59941 0.25536 0.68502
 H1233 H 0.56466 0.26248 0.65087
 H1234 H 0.64066 0.23426 0.69935
 H1235 H 0.57558 0.22086 0.56725
 H1236 H 0.68401 0.23650 0.65410
 C1237 C 0.94181 0.27532 0.06164
 C1238 C 0.91622 0.28627 0.06586
 C1239 C 0.90018 0.28355 0.09119
 C1240 C 0.87513 0.29649 0.09247
 C1241 C 0.85806 0.29279 0.11470
 C1242 C 0.86563 0.27593 0.13625
 C1243 C 0.89104 0.26373 0.13552
 C1244 C 0.90810 0.26728 0.11316
 C1245 C 0.84762 0.27081 0.15970
 C1246 C 0.81957 0.27206 0.15784
 H1247 H 0.90680 0.29688 0.04920
 H1248 H 0.86852 0.30925 0.07595
 H1249 H 0.83903 0.30327 0.11494
 H1250 H 0.89743 0.25081 0.15200
 H1251 H 0.92704 0.25671 0.11307
 H1252 H 0.85668 0.26419 0.17857
 H1253 H 0.95321 0.26764 0.07864
 H1254 H 0.81014 0.27652 0.13853
 C1255 C 0.42845 0.73476 0.55042
 C1256 C 0.40114 0.74062 0.55322
 C1257 C 0.38601 0.73778 0.57894
 C1258 C 0.35797 0.73528 0.57740
 C1259 C 0.34247 0.73454 0.60097
 C1260 C 0.35463 0.73692 0.62676
 C1261 C 0.38277 0.73850 0.62843
 C1262 C 0.39839 0.73909 0.60472
 C1263 C 0.33822 0.73775 0.65190
 C1264 C 0.31206 0.74774 0.65163
 H1265 H 0.38998 0.74803 0.53594
 H1266 H 0.34797 0.73399 0.55782
 H1267 H 0.32094 0.73203 0.59882
 H1268 H 0.39262 0.74007 0.64806
 H1269 H 0.41994 0.74151 0.60673
 H1270 H 0.34685 0.73059 0.67077
 H1271 H 0.43947 0.72731 0.56781
 H1272 H 0.30411 0.75631 0.63310
 C1273 C 0.25211 0.06597 0.93913
 C1274 C 0.24349 0.09253 0.93505
 C1275 C 0.24606 0.10789 0.90939
 C1276 C 0.23510 0.13390 0.90878
 C1277 C 0.23780 0.15003 0.88584
 C1278 C 0.25161 0.14053 0.86286
 C1279 C 0.26188 0.11426 0.86295
 C1280 C 0.25942 0.09810 0.88611
 C1281 C 0.25517 0.15780 0.83875
 C1282 C 0.25854 0.18560 0.84137
 H1283 H 0.23324 0.10298 0.95129
 H1284 H 0.22454 0.14196 0.92627
 H1285 H 0.22886 0.16988 0.88610
 H1286 H 0.27240 0.10650 0.84531
 H1287 H 0.26832 0.07830 0.88561
 H1288 H 0.25604 0.14843 0.81881
 H1289 H 0.25900 0.05447 0.92177
 H1290 H 0.26033 0.19451 0.86147
 C1291 C 0.71192 0.56811 0.45131
 C1292 C 0.72475 0.59264 0.44583
 C1293 C 0.72629 0.60558 0.41864
 C1294 C 0.74433 0.62715 0.41546
 C1295 C 0.74694 0.64018 0.39052
 C1296 C 0.73165 0.63188 0.36782
 C1297 C 0.71310 0.61068 0.37104
 C1298 C 0.71047 0.59755 0.39615
 C1299 C 0.73354 0.64624 0.34137
 C1300 C 0.75633 0.66109 0.33415
 H1301 H 0.73621 0.60216 0.46202
 H1302 H 0.75648 0.63410 0.43245
 H1303 H 0.76053 0.65722 0.38947
 H1304 H 0.70063 0.60427 0.35408
 H1305 H 0.69584 0.58147 0.39779
 H1306 H 0.71606 0.64655 0.32817
 H1307 H 0.70240 0.55700 0.43491
 H1308 H 0.77409 0.66030 0.34686
 C1309 C 0.74958 0.04786 0.07858
 C1310 C 0.74934 0.07435 0.06890
 C1311 C 0.75398 0.09725 0.08771
 C1312 C 0.73879 0.12084 0.08506
 C1313 C 0.74069 0.14134 0.10468
 C1314 C 0.75820 0.13861 0.12704
 C1315 C 0.77445 0.11566 0.12870
 C1316 C 0.77251 0.09526 0.10921
 C1317 C 0.75874 0.15781 0.15015
 C1318 C 0.74800 0.18374 0.14972
 H1319 H 0.74261 0.07879 0.04849
 H1320 H 0.72451 0.12284 0.06852
 H1321 H 0.72764 0.15859 0.10281
 H1322 H 0.78828 0.11320 0.14552
 H1323 H 0.78516 0.07768 0.11129
 H1324 H 0.76814 0.15094 0.16877
 H1325 H 0.75288 0.04526 0.10022
 H1326 H 0.74056 0.19233 0.13099
 C1327 C 0.21134 0.53631 0.55931
 C1328 C 0.22146 0.56243 0.55649
 C1329 C 0.21996 0.58312 0.57836
 C1330 C 0.22746 0.60981 0.57255
 C1331 C 0.22893 0.62927 0.59326
 C1332 C 0.22293 0.62230 0.62031
 C1333 C 0.21513 0.59575 0.62600
 C1334 C 0.21372 0.57638 0.60542
 C1335 C 0.22560 0.64131 0.64350
 C1336 C 0.22956 0.66910 0.64135
 H1337 H 0.23334 0.56711 0.53865
 H1338 H 0.23278 0.61548 0.55198
 H1339 H 0.23544 0.64937 0.58798
 H1340 H 0.21061 0.58974 0.64667
 H1341 H 0.20873 0.55603 0.61129
 H1342 H 0.22383 0.63278 0.66369
 H1343 H 0.19898 0.53115 0.57658
 H1344 H 0.23021 0.67876 0.62170
 C1345 C 0.74548 0.95027 0.93283
 C1346 C 0.75654 0.94932 0.90680
 C1347 C 0.76121 0.92400 0.89160
 C1348 C 0.77941 0.92432 0.86987
 C1349 C 0.78294 0.90148 0.85365
 C1350 C 0.76824 0.87781 0.85868
 C1351 C 0.75027 0.87726 0.88074
 C1352 C 0.74678 0.90016 0.89705
 C1353 C 0.77065 0.85532 0.83899
 C1354 C 0.75985 0.82949 0.84244
 H1355 H 0.76289 0.96796 0.89734
 H1356 H 0.79064 0.94247 0.86514
 H1357 H 0.79679 0.90252 0.83669
 H1358 H 0.73808 0.85967 0.88493
 H1359 H 0.73199 0.89937 0.91314
 H1360 H 0.78093 0.85974 0.82008
 H1361 H 0.74242 0.93174 0.94396
 H1362 H 0.75139 0.82334 0.86169
 C1363 C 0.24435 0.44622 0.41005
 C1364 C 0.25720 0.44480 0.38475
 C1365 C 0.25934 0.42018 0.36760
 C1366 C 0.27311 0.42207 0.34273
 C1367 C 0.27534 0.39972 0.32548
 C1368 C 0.26415 0.37484 0.33283
 C1369 C 0.25022 0.37285 0.35764
 C1370 C 0.24783 0.39525 0.37484
 C1371 C 0.26636 0.35178 0.31374
 C1372 C 0.26490 0.32500 0.32212
 H1373 H 0.26683 0.46281 0.37703
 H1374 H 0.28205 0.44100 0.33648
 H1375 H 0.28595 0.40187 0.30637
 H1376 H 0.24053 0.35424 0.36359
 H1377 H 0.23669 0.39276 0.39350
 H1378 H 0.26989 0.35607 0.29244
 H1379 H 0.23657 0.42818 0.41946
 H1380 H 0.26346 0.32037 0.34357
 C1381 C 0.26480 0.92249 0.03880
 C1382 C 0.25466 0.89649 0.04289
 C1383 C 0.25842 0.88031 0.06781
 C1384 C 0.26548 0.89155 0.09322
 C1385 C 0.26745 0.87514 0.11630
 C1386 C 0.26242 0.84724 0.11429
 C1387 C 0.25582 0.83618 0.08881
 C1388 C 0.25366 0.85250 0.06596
 C1389 C 0.26357 0.82870 0.13777
 C1390 C 0.26304 0.83648 0.16516
 H1391 H 0.24318 0.88703 0.02668
 H1392 H 0.26894 0.91296 0.09556
 H1393 H 0.27295 0.88439 0.13549
 H1394 H 0.25190 0.81478 0.08661
 H1395 H 0.24818 0.84329 0.04668
 H1396 H 0.26303 0.80734 0.13306
 H1397 H 0.27536 0.93289 0.05502
 H1398 H 0.26314 0.85755 0.17089
 C1399 C 0.71160 0.42606 0.55627
 C1400 C 0.72175 0.40039 0.56171
 C1401 C 0.72158 0.38756 0.58893
 C1402 C 0.72422 0.35949 0.59024
 C1403 C 0.72608 0.34646 0.61526
 C1404 C 0.72597 0.36128 0.63977
 C1405 C 0.72252 0.38933 0.63856
 C1406 C 0.72048 0.40242 0.61340
 C1407 C 0.72921 0.34790 0.66660
 C1408 C 0.74233 0.32322 0.66918
 H1409 H 0.73078 0.38889 0.54540
 H1410 H 0.72490 0.34753 0.57175
 H1411 H 0.72745 0.32472 0.61518
 H1412 H 0.72210 0.40122 0.65711
 H1413 H 0.71894 0.42415 0.61328
 H1414 H 0.72148 0.35781 0.68464
 H1415 H 0.70254 0.43747 0.57265
 H1416 H 0.75134 0.31402 0.65142
 C1417 C 0.05990 0.07991 0.77217
 C1418 C 0.06701 0.10467 0.78405
 C1419 C 0.09298 0.11907 0.77997
 C1420 C 0.09741 0.14307 0.79462
 C1421 C 0.12105 0.15797 0.79123
 C1422 C 0.14093 0.14929 0.77292
 C1423 C 0.13693 0.12498 0.75871
 C1424 C 0.11313 0.11008 0.76199
 C1425 C 0.16588 0.16514 0.76841
 C1426 C 0.16660 0.19315 0.77117
 H1427 H 0.05289 0.11396 0.79793
 H1428 H 0.08243 0.15042 0.80879
 H1429 H 0.12377 0.17613 0.80322
 H1430 H 0.15203 0.11778 0.74462
 H1431 H 0.11073 0.09182 0.75018
 H1432 H 0.18358 0.15474 0.76108
 H1433 H 0.07441 0.06895 0.76016
 H1434 H 0.14831 0.20387 0.77608
 C1435 C 0.54814 0.57619 0.25804
 C1436 C 0.55412 0.60162 0.26886
 C1437 C 0.58020 0.61559 0.26537
 C1438 C 0.58062 0.64377 0.26705
 C1439 C 0.60478 0.65800 0.26517
 C1440 C 0.62934 0.64428 0.26227
 C1441 C 0.62890 0.61604 0.26007
 C1442 C 0.60457 0.60176 0.26168
 C1443 C 0.65545 0.65885 0.26111
 C1444 C 0.65871 0.68504 0.27112
 H1445 H 0.53898 0.61240 0.28024
 H1446 H 0.56208 0.65489 0.26967
 H1447 H 0.60388 0.67975 0.26574
 H1448 H 0.64748 0.60498 0.25761
 H1449 H 0.60505 0.57998 0.26080
 H1450 H 0.67264 0.64857 0.25246
 H1451 H 0.56351 0.56540 0.24693
 H1452 H 0.64215 0.69510 0.28106
 C1453 C 0.06246 0.94764 0.21672
 C1454 C 0.08581 0.94324 0.23202
 C1455 C 0.10162 0.91797 0.23270
 C1456 C 0.12382 0.91702 0.25037
 C1457 C 0.14018 0.89430 0.25145
 C1458 C 0.13481 0.87186 0.23473
 C1459 C 0.11226 0.87241 0.21747
 C1460 C 0.09588 0.89531 0.21626
 C1461 C 0.15215 0.84766 0.23541
 C1462 C 0.17948 0.84914 0.24202
 H1463 H 0.09297 0.95949 0.24498
 H1464 H 0.12864 0.93403 0.26344
 H1465 H 0.15680 0.89431 0.26569
 H1466 H 0.10759 0.85524 0.20456
 H1467 H 0.07907 0.89514 0.20230
 H1468 H 0.14347 0.82843 0.22948
 H1469 H 0.05299 0.93125 0.20568
 H1470 H 0.18886 0.86862 0.24535
 C1471 C 0.57840 0.45823 0.74615
 C1472 C 0.57247 0.43242 0.73639
 C1473 C 0.59313 0.41100 0.73691
 C1474 C 0.58570 0.38383 0.73963
 C1475 C 0.60541 0.36365 0.74040
 C1476 C 0.63287 0.37044 0.73799
 C1477 C 0.64001 0.39755 0.73429
 C1478 C 0.62048 0.41753 0.73367
 C1479 C 0.65504 0.35064 0.73979
 C1480 C 0.65217 0.32305 0.74468
 H1481 H 0.55329 0.42830 0.72671
 H1482 H 0.56470 0.37828 0.74164
 H1483 H 0.59895 0.34302 0.74304
 H1484 H 0.66092 0.40341 0.73202
 H1485 H 0.62691 0.43812 0.73030
 H1486 H 0.67528 0.35868 0.73806
 H1487 H 0.59723 0.46143 0.75687
 H1488 H 0.63250 0.31376 0.74586
 C1489 C 0.92141 0.05162 0.20755
 C1490 C 0.89408 0.05441 0.20171
 C1491 C 0.87972 0.08054 0.20165
 C1492 C 0.88974 0.10375 0.21495
 C1493 C 0.87409 0.12714 0.21674
 C1494 C 0.84813 0.12767 0.20532
 C1495 C 0.83853 0.10467 0.19160
 C1496 C 0.85409 0.08143 0.18979
 C1497 C 0.82930 0.15043 0.20917
 C1498 C 0.83569 0.17564 0.22046
 H1499 H 0.88241 0.03656 0.19683
 H1500 H 0.90911 0.10368 0.22500
 H1501 H 0.88203 0.14421 0.22796
 H1502 H 0.81851 0.10437 0.18290
 H1503 H 0.84576 0.06384 0.17963
 H1504 H 0.80852 0.14663 0.20352
 H1505 H 0.93398 0.06944 0.20886
 H1506 H 0.85634 0.18150 0.22427
 C1507 C 0.43791 0.56175 0.72396
 C1508 C 0.41465 0.56753 0.70904
 C1509 C 0.39799 0.59209 0.71217
 C1510 C 0.37533 0.59467 0.69530
 C1511 C 0.35769 0.61623 0.69850
 C1512 C 0.36224 0.63577 0.71879
 C1513 C 0.38545 0.63394 0.73496
 C1514 C 0.40309 0.61220 0.73190
 C1515 C 0.34289 0.65787 0.72356
 C1516 C 0.31531 0.65422 0.71944
 H1517 H 0.40785 0.55284 0.69414
 H1518 H 0.37097 0.57968 0.67978
 H1519 H 0.34050 0.61752 0.68503
 H1520 H 0.38949 0.64894 0.75056
 H1521 H 0.42023 0.61112 0.74538
 H1522 H 0.35020 0.67664 0.73226
 H1523 H 0.44701 0.57695 0.73687
 H1524 H 0.30778 0.63462 0.71318
 C1525 C 0.95556 0.93814 0.77446
 C1526 C 0.94922 0.91330 0.78632
 C1527 C 0.92360 0.89816 0.78247
 C1528 C 0.92082 0.87320 0.79555
 C1529 C 0.89763 0.85754 0.79209
 C1530 C 0.87657 0.86645 0.77534
 C1531 C 0.87893 0.89171 0.76282
 C1532 C 0.90224 0.90738 0.76615
 C1533 C 0.85197 0.84999 0.77083
 C1534 C 0.85196 0.82188 0.77226
 H1535 H 0.96397 0.90424 0.79962
 H1536 H 0.93675 0.86565 0.80847
 H1537 H 0.89621 0.83861 0.80283
 H1538 H 0.86285 0.89914 0.75001
 H1539 H 0.90330 0.92645 0.75574
 H1540 H 0.83375 0.86020 0.76464
 H1541 H 0.94055 0.94893 0.76300
 H1542 H 0.87056 0.81134 0.77620
 C1543 C 0.44444 0.43393 0.25098
 C1544 C 0.44210 0.40771 0.24055
 C1545 C 0.41668 0.39182 0.23910
 C1546 C 0.41722 0.36674 0.22573
 C1547 C 0.39463 0.34988 0.22547
 C1548 C 0.37085 0.35762 0.23880
 C1549 C 0.36987 0.38309 0.25135
 C1550 C 0.39258 0.39998 0.25174
 C1551 C 0.34710 0.33940 0.24012
 C1552 C 0.34975 0.31139 0.24005
 H1553 H 0.46003 0.39797 0.23298
 H1554 H 0.43538 0.35994 0.21569
 H1555 H 0.39592 0.33082 0.21475
 H1556 H 0.35171 0.38960 0.26159
 H1557 H 0.39122 0.41894 0.26255
 H1558 H 0.32739 0.34815 0.24305
 H1559 H 0.42650 0.44524 0.25567
 H1560 H 0.36965 0.30265 0.23956
   
