data_POSCAR
  _audit_creation_date              2014-09-24
  _audit_creation_method            'ToBaCCo'
  _symmetry_space_group_name_H-M    'P1'
  _symmetry_Int_Tables_number       1
  _symmetry_cell_setting            triclinic
  loop_
  _symmetry_equiv_pos_as_xyz
 x,y,z
_cell_length_a 54.8884
_cell_length_b 54.8190
_cell_length_c 54.9352
_cell_angle_alpha 89.804500
_cell_angle_beta 90.299800
_cell_angle_gamma 89.965700
loop_
  _atom_site_label
  _atom_site_type_symbol
  _atom_site_fract_x
  _atom_site_fract_y
  _atom_site_fract_z
C1 C 0.12506 -0.00049 0.24982
 C2 C 0.37420 0.00234 0.74999
 C3 C 0.87472 0.49777 0.25027
 C4 C 0.62474 0.50311 0.75272
 C5 C 0.24975 0.12581 0.99942
 C6 C 0.75069 0.37451 1.00094
 C7 C 0.24941 0.87440 0.49806
 C8 C 0.75225 0.62564 0.50017
 C9 C -0.00312 0.24510 0.12599
 C10 C -0.00066 0.74966 0.37486
 C11 C 0.49816 0.25317 0.87548
 C12 C 0.50243 0.75030 0.62602
 C13 C 0.87590 1.00287 0.74893
 C14 C 0.37600 0.49912 0.25161
 C15 C 0.62358 0.99792 0.25108
 C16 C 0.12331 0.50204 0.75143
 C17 C 0.74991 0.87525 -0.00056
 C18 C 0.25210 0.37545 0.49857
 C19 C 0.25051 0.62444 -0.00095
 C20 C 0.74919 0.12537 0.50140
 C21 C 1.00410 0.74595 0.87536
 C22 C 0.49800 0.25141 0.37543
 C23 C 0.99659 0.24907 0.62597
 C24 C 0.49776 0.75194 0.12574
 O25 O -0.01284 0.92740 0.98606
 O26 O -0.00059 0.92643 1.02609
 O27 O -0.06733 0.98452 0.98431
 O28 O -0.06949 1.02413 0.99187
 O29 O -0.01013 0.98236 0.92942
 O30 O 0.03143 0.99362 0.92961
 O31 O -0.00279 1.04955 1.04662
 O32 O -0.04052 1.03204 1.04917
 O33 O 0.04865 0.99309 1.05269
 O34 O 0.05502 0.95417 1.03246
 O35 O 0.05517 1.04405 0.99586
 O36 O 0.03522 1.05076 0.95732
 O37 O 0.01640 1.06479 1.01315
 O38 O 0.00415 1.06554 0.96888
 O39 O 0.07024 1.01014 1.01459
 O40 O 0.07054 0.96636 1.00197
 O41 O 0.01495 1.01230 1.06715
 O42 O -0.02648 0.99415 1.06622
 O43 O 0.00705 0.94227 0.95281
 O44 O 0.04527 0.96326 0.94772
 O45 O -0.04411 1.00118 0.94376
 O46 O -0.04765 1.04085 0.96505
 O47 O -0.05250 0.95014 1.00245
 O48 O -0.03183 0.94784 1.04256
 Zr49 Zr -0.01544 0.95785 1.00904
 O50 O 0.00683 0.97870 1.03234
 Zr51 Zr -0.03672 1.00729 0.98088
 O52 O -0.01607 1.03016 1.00371
 Zr53 Zr 0.01274 0.97959 0.96015
 O54 O 0.03568 1.00188 0.98139
 Zr55 Zr -0.00917 1.01306 1.03729
 O56 O -0.03277 0.99148 1.01570
 Zr57 Zr 0.04049 0.98598 1.01593
 O58 O 0.01943 0.96246 0.99379
 Zr59 Zr 0.01854 1.03543 0.98847
 O60 O -0.00300 1.01436 0.96425
 O61 O -0.02149 0.97318 0.97481
 O62 O 0.02514 1.02007 1.02260
 C63 C -0.00278 0.92496 0.96516
 C64 C -0.06982 0.96306 0.99336
 C65 C -0.03136 0.99180 0.92666
 C66 C 0.00730 1.06686 1.03455
 C67 C 0.03640 1.00335 1.06965
 C68 C 0.07241 1.03176 1.00589
 H69 H 0.00876 0.97001 1.04804
 H70 H 0.05130 1.00407 0.97281
 H71 H -0.03187 0.96277 0.96432
 H72 H -0.02493 1.04568 1.00599
 H73 H -0.05470 1.02159 1.04522
 H74 H -0.06583 1.03288 1.00715
 H75 H 0.07632 0.97501 0.98726
 H76 H 0.05063 0.95176 0.96060
 H77 H -0.02583 1.00464 1.08089
 H78 H -0.04130 0.93261 1.04019
 H79 H 0.04697 1.03865 0.95107
 H80 H 0.02562 1.01058 0.92733
 H81 H 0.01664 0.92535 1.02096
 H82 H 0.04335 0.94861 1.04496
 H83 H -0.03582 1.04465 0.95203
 H84 H -0.01045 1.07138 0.97760
 O85 O 0.49756 0.55479 0.54758
 O86 O 0.45972 0.53679 0.55122
 O87 O 0.54781 0.49503 0.55616
 O88 O 0.55603 0.45984 0.53800
 O89 O 0.55644 0.54666 0.49643
 O90 O 0.53653 0.55192 0.45847
 O91 O 0.48530 0.43141 0.48996
 O92 O 0.49898 0.43060 0.52939
 O93 O 0.43354 0.48768 0.48468
 O94 O 0.43267 0.53060 0.49531
 O95 O 0.48960 0.48379 0.43289
 O96 O 0.53216 0.49419 0.43218
 O97 O 0.50482 0.44549 0.45619
 O98 O 0.54560 0.46605 0.45116
 O99 O 0.45592 0.50356 0.44656
 O100 O 0.45113 0.54407 0.46706
 O101 O 0.44778 0.45374 0.50406
 O102 O 0.46600 0.45414 0.54560
 O103 O 0.51644 0.56922 0.51355
 O104 O 0.50518 0.56904 0.47095
 O105 O 0.57092 0.51307 0.51625
 O106 O 0.56962 0.46975 0.50334
 O107 O 0.51450 0.51540 0.57003
 O108 O 0.47187 0.50086 0.56832
 Zr109 Zr 0.49121 0.51790 0.53954
 O110 O 0.46784 0.49621 0.51820
 Zr111 Zr 0.54059 0.48967 0.51893
 O112 O 0.51911 0.46618 0.49752
 Zr113 Zr 0.51945 0.53881 0.49033
 O114 O 0.49773 0.51743 0.46699
 Zr115 Zr 0.48423 0.46216 0.51253
 O116 O 0.50686 0.48298 0.53587
 Zr117 Zr 0.46373 0.51128 0.48326
 O118 O 0.48466 0.53474 0.50558
 Zr119 Zr 0.51292 0.48240 0.46335
 O120 O 0.53652 0.50503 0.48399
 O121 O 0.52550 0.52388 0.52463
 O122 O 0.47837 0.47666 0.47780
 C123 C 0.50717 0.57188 0.53482
 C124 C 0.53540 0.50531 0.57301
 C125 C 0.57356 0.53419 0.50645
 C126 C 0.49433 0.42867 0.46865
 C127 C 0.43091 0.46619 0.49359
 C128 C 0.46830 0.49296 0.42993
 H129 H 0.45205 0.49444 0.52661
 H130 H 0.49616 0.52585 0.45113
 H131 H 0.53594 0.53427 0.53506
 H132 H 0.52737 0.45022 0.49620
 H133 H 0.50664 0.43603 0.54480
 H134 H 0.54536 0.44566 0.53492
 H135 H 0.46174 0.54777 0.45303
 H136 H 0.48878 0.57222 0.47765
 H137 H 0.45782 0.43811 0.54379
 H138 H 0.47390 0.51070 0.58333
 H139 H 0.52631 0.51077 0.42805
 H140 H 0.54710 0.53856 0.45260
 H141 H 0.45390 0.54663 0.53721
 H142 H 0.42820 0.52405 0.51149
 H143 H 0.57404 0.47820 0.48803
 H144 H 0.54898 0.45173 0.46165
 O145 O 0.44511 -0.04638 0.49637
 O146 O 0.46360 -0.05102 0.45914
 O147 O 0.50456 -0.05282 0.54779
 O148 O 0.53926 -0.03388 0.55611
 O149 O 0.45212 0.00652 0.55413
 O150 O 0.44671 0.04393 0.53318
 O151 O 0.56802 0.01251 0.48472
 O152 O 0.56900 -0.02655 0.49931
 O153 O 0.51224 0.01557 0.43190
 O154 O 0.46946 0.00439 0.43074
 O155 O 0.51494 0.06920 0.48662
 O156 O 0.50429 0.07109 0.52874
 O157 O 0.55338 0.04671 0.50309
 O158 O 0.53212 0.05258 0.54337
 O159 O 0.49571 0.05430 0.45305
 O160 O 0.45563 0.03312 0.44813
 O161 O 0.54620 -0.00296 0.44714
 O162 O 0.54602 -0.04401 0.46643
 O163 O 0.43012 -0.01196 0.51408
 O164 O 0.43009 0.03042 0.50196
 O165 O 0.48577 -0.01244 0.56952
 O166 O 0.52891 0.00107 0.56850
 O167 O 0.48464 -0.06794 0.51466
 O168 O 0.49950 -0.06724 0.47219
 Zr169 Zr 0.48200 -0.03809 0.49053
 O170 O 0.50370 -0.01707 0.46695
 Zr171 Zr 0.50946 -0.01566 0.53967
 O172 O 0.53293 0.00549 0.51801
 Zr173 Zr 0.46029 0.01171 0.51712
 O174 O 0.48166 0.03475 0.49513
 Zr175 Zr 0.53750 -0.01047 0.48365
 O176 O 0.51668 -0.03349 0.50654
 Zr177 Zr 0.48836 0.01762 0.46168
 O178 O 0.46493 -0.00446 0.48283
 Zr179 Zr 0.51645 0.03932 0.51069
 O180 O 0.49379 0.01902 0.53446
 O181 O 0.47548 -0.02229 0.52429
 O182 O 0.52273 0.02398 0.47665
 C183 C 0.42775 -0.03351 0.50523
 C184 C 0.49464 -0.07021 0.53571
 C185 C 0.46457 -0.00282 0.57166
 C186 C 0.57046 0.03413 0.49329
 C187 C 0.53381 0.00682 0.42981
 C188 C 0.50591 0.07148 0.46517
 H189 H 0.50571 -0.02593 0.45144
 H190 H 0.47310 0.05049 0.49302
 H191 H 0.46508 -0.03259 0.53481
 H192 H 0.54876 0.00725 0.52649
 H193 H 0.56364 -0.04187 0.50725
 H194 H 0.55348 -0.03105 0.54551
 H195 H 0.45160 0.04735 0.45838
 H196 H 0.42720 0.02331 0.48566
 H197 H 0.56212 -0.04225 0.45851
 H198 H 0.48987 -0.08237 0.47457
 H199 H 0.48755 0.07454 0.52294
 H200 H 0.45986 0.05023 0.54382
 H201 H 0.45384 -0.03724 0.45267
 H202 H 0.47627 -0.01180 0.42673
 H203 H 0.52019 0.01634 0.57250
 H204 H 0.54661 0.04249 0.54716
 O205 O 0.00673 0.44214 1.04930
 O206 O 0.04467 0.46003 1.05282
 O207 O -0.04318 0.50222 1.05713
 O208 O -0.05109 0.53755 1.03871
 O209 O -0.05279 0.45049 0.99816
 O210 O -0.03324 0.44493 0.96017
 O211 O 0.01894 0.56522 0.99020
 O212 O 0.00571 0.56624 1.02969
 O213 O 0.07043 0.50872 0.98554
 O214 O 0.07121 0.46581 0.99687
 O215 O 0.01380 0.51239 0.93375
 O216 O -0.02886 0.50224 0.93327
 O217 O -0.00086 0.55094 0.95656
 O218 O -0.04178 0.53071 0.95173
 O219 O 0.04753 0.49251 0.94765
 O220 O 0.05243 0.45222 0.96876
 O221 O 0.05648 0.54283 1.00445
 O222 O 0.03890 0.54271 1.04603
 O223 O -0.01270 0.42772 1.01547
 O224 O -0.00198 0.42753 0.97295
 O225 O -0.06674 0.48434 1.01752
 O226 O -0.06535 0.52748 1.00414
 O227 O -0.00988 0.48172 1.07131
 O228 O 0.03285 0.49611 1.06946
 Zr229 Zr 0.01315 0.47900 1.04087
 O230 O 0.03642 0.50046 1.01925
 Zr231 Zr -0.03623 0.50748 1.01991
 O232 O -0.01487 0.53067 0.99815
 Zr233 Zr -0.01576 0.45802 0.99192
 O234 O 0.00590 0.47909 0.96833
 Zr235 Zr 0.02015 0.53458 1.01314
 O236 O -0.00229 0.51401 1.03677
 Zr237 Zr 0.04012 0.48518 0.98451
 O238 O 0.01924 0.46197 1.00710
 Zr239 Zr -0.00914 0.51416 0.96422
 O240 O -0.03267 0.49187 0.98516
 O241 O -0.02133 0.47319 1.02602
 O242 O 0.02558 0.51982 0.97859
 C243 C -0.00316 0.42506 1.03673
 C244 C -0.03074 0.49189 1.07411
 C245 C -0.06969 0.46320 1.00801
 C246 C 0.00977 0.56783 0.96881
 C247 C 0.07319 0.53030 0.99410
 C248 C 0.03500 0.50303 0.93088
 H249 H 0.05231 0.50222 1.02764
 H250 H 0.00725 0.47054 0.95259
 H251 H -0.03172 0.46289 1.03656
 H252 H -0.02307 0.54667 0.99660
 H253 H -0.00171 0.56090 1.04521
 H254 H -0.04059 0.55172 1.03506
 H255 H 0.04156 0.44839 0.95487
 H256 H 0.01454 0.42437 0.97956
 H257 H 0.04706 0.55873 1.04401
 H258 H 0.03088 0.48638 1.08459
 H259 H -0.02310 0.48564 0.92930
 H260 H -0.04391 0.45828 0.95426
 H261 H 0.05036 0.45018 1.03889
 H262 H 0.07595 0.47255 1.01289
 H263 H -0.06989 0.51908 0.98885
 H264 H -0.04502 0.54506 0.96208
 O265 O 0.07028 0.48729 0.51622
 O266 O 0.07084 0.52740 0.50379
 O267 O 0.01229 0.48508 0.56921
 O268 O -0.02739 0.49230 0.57046
 O269 O 0.01632 0.42994 0.51226
 O270 O 0.00579 0.42989 0.47045
 O271 O -0.05253 0.54654 0.50318
 O272 O -0.03566 0.54948 0.54127
 O273 O 0.00472 0.55320 0.45308
 O274 O 0.04401 0.53332 0.44768
 O275 O -0.04518 0.49565 0.44553
 O276 O -0.05161 0.45701 0.46525
 O277 O -0.06685 0.51274 0.48374
 O278 O -0.06704 0.46841 0.49603
 O279 O -0.01136 0.51476 0.43120
 O280 O 0.03252 0.50259 0.43188
 O281 O -0.01535 0.56754 0.48625
 O282 O 0.00210 0.56699 0.52803
 O283 O 0.05624 0.45375 0.49610
 O284 O 0.03608 0.44835 0.45732
 O285 O -0.00324 0.44427 0.54573
 O286 O -0.04329 0.46512 0.54832
 O287 O 0.04660 0.50361 0.55517
 O288 O 0.04868 0.54378 0.53451
 Zr289 Zr 0.03948 0.51003 0.51796
 O290 O 0.01866 0.53308 0.49522
 Zr291 Zr -0.00985 0.48135 0.53813
 O292 O -0.03268 0.50387 0.51694
 Zr293 Zr 0.01900 0.46070 0.48942
 O294 O -0.00318 0.48167 0.46596
 Zr295 Zr -0.01602 0.53770 0.51039
 O296 O 0.00549 0.51639 0.53448
 Zr297 Zr 0.01223 0.51645 0.46146
 O298 O 0.03571 0.49458 0.48305
 Zr299 Zr -0.03709 0.48841 0.48229
 O300 O -0.01606 0.46445 0.50433
 O301 O 0.02456 0.47560 0.52372
 O302 O -0.02218 0.52278 0.47598
 C303 C 0.07317 0.46629 0.50636
 C304 C 0.03354 0.49437 0.57217
 C305 C 0.00663 0.42719 0.53329
 C306 C -0.06944 0.53418 0.49275
 C307 C -0.00605 0.57009 0.46503
 C308 C -0.03279 0.50581 0.42858
 H309 H 0.02712 0.54891 0.49347
 H310 H -0.00497 0.47300 0.45031
 H311 H 0.03492 0.46524 0.53435
 H312 H -0.04838 0.50600 0.52543
 H313 H -0.02539 0.54568 0.55567
 H314 H -0.03637 0.50745 0.56655
 H315 H 0.02424 0.48770 0.42598
 H316 H 0.04752 0.46135 0.45227
 H317 H -0.00859 0.58156 0.52711
 H318 H 0.06377 0.54160 0.54430
 H319 H -0.03918 0.45083 0.45385
 H320 H -0.01119 0.42739 0.47590
 H321 H 0.07237 0.52209 0.48666
 H322 H 0.04919 0.54590 0.45949
 H323 H -0.04664 0.45194 0.53649
 H324 H -0.07330 0.47713 0.51044
 O325 O 0.51556 0.93295 0.01258
 O326 O 0.50327 0.93209 -0.02759
 O327 O 0.56953 0.99021 0.01452
 O328 O 0.57147 1.02991 0.00659
 O329 O 0.51210 0.98752 0.06898
 O330 O 0.47043 0.99867 0.06856
 O331 O 0.50477 1.05532 -0.04832
 O332 O 0.54265 1.03806 -0.05071
 O333 O 0.45378 0.99854 -0.05454
 O334 O 0.44764 0.95948 -0.03430
 O335 O 0.44661 1.04914 0.00220
 O336 O 0.46649 1.05572 0.04090
 O337 O 0.48529 1.07023 -0.01497
 O338 O 0.49731 1.07094 0.02924
 O339 O 0.43191 1.01523 -0.01655
 O340 O 0.43189 0.97139 -0.00389
 O341 O 0.48740 1.01804 -0.06890
 O342 O 0.52900 1.00016 -0.06774
 O343 O 0.49546 0.94759 0.04572
 O344 O 0.45692 0.96821 0.05047
 O345 O 0.54604 1.00657 0.05480
 O346 O 0.54944 1.04640 0.03348
 O347 O 0.55493 0.95589 -0.00367
 O348 O 0.53456 0.95370 -0.04393
 Zr349 Zr 0.51790 0.96348 -0.01054
 O350 O 0.49563 0.98432 -0.03399
 Zr351 Zr 0.53878 1.01289 0.01761
 O352 O 0.51803 1.03576 -0.00533
 Zr353 Zr 0.48938 0.98484 0.03818
 O354 O 0.46637 1.00707 0.01678
 Zr355 Zr 0.51139 1.01881 -0.03893
 O356 O 0.53506 0.99723 -0.01720
 Zr357 Zr 0.46185 0.99130 -0.01774
 O358 O 0.48295 0.96779 0.00456
 Zr359 Zr 0.48330 1.04075 0.00974
 O360 O 0.50492 1.01970 0.03408
 O361 O 0.52370 0.97871 0.02366
 O362 O 0.47696 1.02552 -0.02440
 C363 C 0.50557 0.93041 0.03352
 C364 C 0.57213 0.96876 0.00559
 C365 C 0.53329 0.99695 0.07182
 C366 C 0.49446 1.07248 -0.03633
 C367 C 0.46601 1.00897 -0.07146
 C368 C 0.42951 1.03677 -0.00787
 H369 H 0.49384 0.97570 -0.04968
 H370 H 0.45069 1.00911 0.02530
 H371 H 0.53410 0.96832 0.03423
 H372 H 0.52677 1.05135 -0.00761
 H373 H 0.55689 1.02770 -0.04663
 H374 H 0.56770 1.03898 -0.00854
 H375 H 0.42602 0.97988 0.01082
 H376 H 0.45180 0.95664 0.03764
 H377 H 0.52830 1.01070 -0.08244
 H378 H 0.54406 0.93847 -0.04146
 H379 H 0.45460 1.04361 0.04696
 H380 H 0.47620 1.01561 0.07090
 H381 H 0.48613 0.93072 -0.02226
 H382 H 0.45948 0.95400 -0.04664
 H383 H 0.53747 1.05011 0.04638
 H384 H 0.51203 1.07677 0.02069
 O385 O 0.48954 0.51632 0.07169
 O386 O 0.52981 0.50427 0.07228
 O387 O 0.48638 0.57023 0.01441
 O388 O 0.49385 0.57235 -0.02524
 O389 O 0.43221 0.51236 0.01757
 O390 O 0.43261 0.47063 0.00673
 O391 O 0.54862 0.50599 -0.05082
 O392 O 0.55117 0.54396 -0.03368
 O393 O 0.55585 0.45497 0.00596
 O394 O 0.53623 0.44866 0.04514
 O395 O 0.49837 0.44744 -0.04409
 O396 O 0.45952 0.46691 -0.05051
 O397 O 0.51506 0.48626 -0.06539
 O398 O 0.47071 0.49803 -0.06576
 O399 O 0.51767 0.43281 -0.01033
 O400 O 0.50566 0.43264 0.03349
 O401 O 0.56985 0.48873 -0.01372
 O402 O 0.56885 0.53035 0.00403
 O403 O 0.45618 0.49599 0.05739
 O404 O 0.45128 0.45727 0.03702
 O405 O 0.44601 0.54644 -0.00170
 O406 O 0.46680 0.55008 -0.04154
 O407 O 0.50523 0.55581 0.04858
 O408 O 0.54566 0.53583 0.05047
 Zr409 Zr 0.51218 0.51882 0.04105
 O410 O 0.53540 0.49671 0.02018
 Zr411 Zr 0.48317 0.53948 -0.00815
 O412 O 0.50587 0.51894 -0.03104
 Zr413 Zr 0.46317 0.48988 0.02019
 O414 O 0.48432 0.46704 -0.00207
 Zr415 Zr 0.53977 0.51254 -0.01433
 O416 O 0.51826 0.53605 0.00726
 Zr417 Zr 0.51912 0.46277 0.01345
 O418 O 0.49711 0.48370 0.03700
 Zr419 Zr 0.49080 0.48407 -0.03579
 O420 O 0.46667 0.50547 -0.01469
 O421 O 0.47769 0.52434 0.02606
 O422 O 0.52521 0.47797 -0.02080
 C423 C 0.46862 0.50622 0.07441
 C424 C 0.49561 0.57292 0.03574
 C425 C 0.42915 0.53354 0.00805
 C426 C 0.53638 0.49560 -0.06782
 C427 C 0.57260 0.46731 -0.00463
 C428 C 0.50868 0.43039 -0.03177
 H429 H 0.55125 0.49503 0.02868
 H430 H 0.47582 0.45127 -0.00400
 H431 H 0.46721 0.53466 0.03643
 H432 H 0.50788 0.52772 -0.04665
 H433 H 0.54721 0.55817 -0.02335
 H434 H 0.50888 0.56872 -0.03436
 H435 H 0.49081 0.42668 0.02515
 H436 H 0.46431 0.45230 0.04855
 H437 H 0.58340 0.52977 -0.00658
 H438 H 0.54342 0.54525 0.06570
 H439 H 0.45359 0.45508 -0.03828
 H440 H 0.43000 0.47633 -0.01020
 H441 H 0.52452 0.48708 0.07377
 H442 H 0.54866 0.46059 0.05045
 H443 H 0.45385 0.53803 -0.04512
 H444 H 0.47924 0.51272 -0.07181
 O445 O 0.05344 -0.04686 0.50298
 O446 O 0.03506 -0.05156 0.54045
 O447 O -0.00603 -0.05330 0.45186
 O448 O -0.04093 -0.03442 0.44362
 O449 O 0.04607 0.00627 0.44523
 O450 O 0.05132 0.04365 0.46604
 O451 O -0.06971 0.01166 0.51479
 O452 O -0.07051 -0.02741 0.50037
 O453 O -0.01379 0.01469 0.56751
 O454 O 0.02903 0.00353 0.56863
 O455 O -0.01688 0.06847 0.51280
 O456 O -0.00616 0.07053 0.47047
 O457 O -0.05521 0.04598 0.49633
 O458 O -0.03415 0.05225 0.45614
 O459 O 0.00254 0.05345 0.54633
 O460 O 0.04273 0.03239 0.55114
 O461 O -0.04774 -0.00379 0.55239
 O462 O -0.04743 -0.04482 0.53332
 O463 O 0.06819 -0.01230 0.48511
 O464 O 0.06813 0.03000 0.49729
 O465 O 0.01251 -0.01280 0.42996
 O466 O -0.03065 0.00061 0.43095
 O467 O 0.01402 -0.06845 0.48501
 O468 O -0.00077 -0.06797 0.52745
 Zr469 Zr 0.01655 -0.03867 0.50901
 O470 O -0.00521 -0.01782 0.53256
 Zr471 Zr -0.01114 -0.01615 0.45986
 O472 O -0.03462 0.00489 0.48150
 Zr473 Zr 0.03795 0.01132 0.48222
 O474 O 0.01656 0.03421 0.50422
 Zr475 Zr -0.03907 -0.01124 0.51590
 O476 O -0.01819 -0.03412 0.49306
 Zr477 Zr 0.01003 0.01687 0.53770
 O478 O 0.03351 -0.00503 0.51656
 Zr479 Zr -0.01827 0.03874 0.48871
 O480 O 0.00438 0.01857 0.46493
 O481 O 0.02289 -0.02270 0.47520
 O482 O -0.02440 0.02321 0.52279
 C483 C 0.07068 -0.03392 0.49392
 C484 C 0.00402 -0.07068 0.46398
 C485 C 0.03367 -0.00313 0.42777
 C486 C -0.07224 0.03331 0.50618
 C487 C -0.03535 0.00596 0.56965
 C488 C -0.00783 0.07064 0.53425
 H489 H -0.00717 -0.02674 0.54810
 H490 H 0.02507 0.04996 0.50628
 H491 H 0.03329 -0.03294 0.46467
 H492 H -0.05047 0.00663 0.47304
 H493 H -0.06508 -0.04267 0.49247
 H494 H -0.05517 -0.03148 0.45415
 H495 H 0.04668 0.04668 0.54085
 H496 H 0.07112 0.02276 0.51356
 H497 H -0.06352 -0.04311 0.54128
 H498 H 0.00899 -0.08303 0.52519
 H499 H 0.01043 0.07422 0.47653
 H500 H 0.03808 0.04997 0.45545
 H501 H 0.04497 -0.03783 0.54668
 H502 H 0.02230 -0.01272 0.57265
 H503 H -0.02206 0.01599 0.42701
 H504 H -0.04840 0.04192 0.45220
 O505 O 0.73493 0.17981 0.26691
 O506 O 0.77503 0.17877 0.25479
 O507 O 0.73335 0.23810 0.31972
 O508 O 0.74117 0.27779 0.32088
 O509 O 0.67824 0.23439 0.26252
 O510 O 0.67814 0.24487 0.22067
 O511 O 0.79533 0.30202 0.25375
 O512 O 0.79820 0.28536 0.29195
 O513 O 0.80123 0.24419 0.20401
 O514 O 0.78089 0.20508 0.19868
 O515 O 0.74435 0.29486 0.19585
 O516 O 0.70576 0.30182 0.21535
 O517 O 0.76165 0.31664 0.23410
 O518 O 0.71746 0.31743 0.24604
 O519 O 0.76307 0.26068 0.18184
 O520 O 0.75036 0.21692 0.18260
 O521 O 0.81590 0.26435 0.23714
 O522 O 0.81524 0.24724 0.27905
 O523 O 0.70151 0.19412 0.24652
 O524 O 0.69617 0.21418 0.20772
 O525 O 0.69278 0.25407 0.29599
 O526 O 0.71399 0.29393 0.29852
 O527 O 0.75143 0.20345 0.30588
 O528 O 0.79155 0.20092 0.28564
 Zr529 Zr 0.75795 0.21040 0.26875
 O530 O 0.78112 0.23083 0.24608
 Zr531 Zr 0.72986 0.26022 0.28856
 O532 O 0.75254 0.28270 0.26739
 Zr533 Zr 0.70881 0.23130 0.23982
 O534 O 0.72993 0.25311 0.21639
 Zr535 Zr 0.78615 0.26560 0.26110
 O536 O 0.76470 0.24445 0.28517
 Zr537 Zr 0.76448 0.23723 0.21219
 O538 O 0.74245 0.21412 0.23374
 Zr539 Zr 0.73706 0.28709 0.23261
 O540 O 0.71298 0.26644 0.25462
 O541 O 0.72373 0.22576 0.27422
 O542 O 0.77121 0.27171 0.22659
 C543 C 0.71391 0.17708 0.25689
 C544 C 0.74233 0.21668 0.32278
 C545 C 0.67562 0.24422 0.28350
 C546 C 0.78313 0.31904 0.24319
 C547 C 0.81828 0.25482 0.21600
 C548 C 0.75438 0.28222 0.17905
 H549 H 0.79683 0.22215 0.24447
 H550 H 0.72127 0.25490 0.20067
 H551 H 0.71330 0.21555 0.28480
 H552 H 0.75485 0.29844 0.27581
 H553 H 0.79431 0.27524 0.30638
 H554 H 0.75626 0.28676 0.31694
 H555 H 0.73559 0.22539 0.17654
 H556 H 0.70904 0.20260 0.20273
 H557 H 0.82990 0.25776 0.27816
 H558 H 0.78924 0.18585 0.29542
 H559 H 0.69954 0.28944 0.20384
 H560 H 0.67585 0.26191 0.22610
 H561 H 0.76958 0.17713 0.23767
 H562 H 0.79349 0.19986 0.21054
 H563 H 0.70088 0.29739 0.28655
 H564 H 0.72619 0.32360 0.26056
 O565 O 0.75819 0.70425 0.69590
 O566 O 0.79566 0.69980 0.71472
 O567 O 0.70699 0.69769 0.75486
 O568 O 0.69877 0.71650 0.78957
 O569 O 0.70009 0.75685 0.70234
 O570 O 0.72070 0.79446 0.69706
 O571 O 0.76979 0.76322 0.81865
 O572 O 0.75552 0.72409 0.81964
 O573 O 0.82255 0.76635 0.76328
 O574 O 0.82370 0.75541 0.72068
 O575 O 0.76727 0.81990 0.76543
 O576 O 0.72511 0.82162 0.75452
 O577 O 0.75108 0.79734 0.80380
 O578 O 0.71068 0.80304 0.78222
 O579 O 0.80096 0.80516 0.74653
 O580 O 0.80590 0.78393 0.70655
 O581 O 0.80748 0.74778 0.79712
 O582 O 0.78846 0.70675 0.79700
 O583 O 0.74015 0.73864 0.68076
 O584 O 0.75206 0.78106 0.68069
 O585 O 0.68497 0.73783 0.73591
 O586 O 0.68591 0.75143 0.77894
 O587 O 0.74018 0.68265 0.73524
 O588 O 0.78273 0.68347 0.75051
 Zr589 Zr 0.76415 0.71258 0.73279
 O590 O 0.78762 0.73370 0.75460
 Zr591 Zr 0.71490 0.73483 0.75984
 O592 O 0.73645 0.75607 0.78338
 Zr593 Zr 0.73710 0.76230 0.71080
 O594 O 0.75898 0.78542 0.73225
 Zr595 Zr 0.77096 0.74022 0.78823
 O596 O 0.74820 0.71710 0.76732
 Zr597 Zr 0.79262 0.76842 0.73924
 O598 O 0.77156 0.74625 0.71572
 Zr599 Zr 0.74346 0.78992 0.76687
 O600 O 0.71977 0.76953 0.74412
 O601 O 0.73025 0.72829 0.72603
 O602 O 0.77768 0.77472 0.77346
 C603 C 0.74908 0.71709 0.67850
 C604 C 0.71911 0.68036 0.74499
 C605 C 0.68270 0.74735 0.71466
 C606 C 0.76103 0.78479 0.82098
 C607 C 0.82475 0.75753 0.78484
 C608 C 0.78868 0.82229 0.75655
 H609 H 0.80322 0.72488 0.75674
 H610 H 0.76093 0.80117 0.72366
 H611 H 0.71977 0.71794 0.71558
 H612 H 0.72799 0.75779 0.79913
 H613 H 0.74762 0.70878 0.81427
 H614 H 0.70924 0.71964 0.80391
 H615 H 0.79557 0.79817 0.70245
 H616 H 0.76839 0.77395 0.67791
 H617 H 0.79643 0.70853 0.81314
 H618 H 0.78045 0.66835 0.74088
 H619 H 0.73074 0.82501 0.73777
 H620 H 0.70992 0.80062 0.71006
 H621 H 0.80186 0.71355 0.70480
 H622 H 0.82763 0.73906 0.72729
 H623 H 0.68178 0.76669 0.77015
 H624 H 0.70698 0.79291 0.79667
 O625 O 0.29504 0.19782 0.74577
 O626 O 0.29930 0.21608 0.70820
 O627 O 0.30179 0.25785 0.79612
 O628 O 0.28289 0.29280 0.80374
 O629 O 0.24309 0.20531 0.80394
 O630 O 0.20527 0.19979 0.78356
 O631 O 0.23562 0.32061 0.73232
 O632 O 0.27476 0.32189 0.74656
 O633 O 0.23240 0.26415 0.68058
 O634 O 0.24367 0.22133 0.68023
 O635 O 0.17926 0.26718 0.73576
 O636 O 0.17788 0.25712 0.77808
 O637 O 0.20173 0.30604 0.75125
 O638 O 0.19633 0.28522 0.79196
 O639 O 0.19392 0.24767 0.70242
 O640 O 0.21523 0.20764 0.69806
 O641 O 0.25092 0.29835 0.69501
 O642 O 0.29202 0.29858 0.71406
 O643 O 0.26087 0.18297 0.76405
 O644 O 0.21843 0.18270 0.75258
 O645 O 0.26195 0.23927 0.81851
 O646 O 0.24810 0.28235 0.81682
 O647 O 0.31662 0.23753 0.76328
 O648 O 0.31550 0.25217 0.72060
 Zr649 Zr 0.28661 0.23470 0.73939
 O650 O 0.26530 0.25611 0.71558
 Zr651 Zr 0.26460 0.26269 0.78817
 O652 O 0.24314 0.28586 0.76623
 Zr653 Zr 0.23722 0.21316 0.76685
 O654 O 0.21392 0.23421 0.74459
 Zr655 Zr 0.25872 0.29011 0.73166
 O656 O 0.28204 0.26959 0.75476
 Zr657 Zr 0.23067 0.24060 0.71087
 O658 O 0.25301 0.21744 0.73233
 Zr659 Zr 0.20935 0.26919 0.75951
 O660 O 0.22997 0.24687 0.78359
 O661 O 0.27119 0.22852 0.77339
 O662 O 0.22430 0.27516 0.72521
 C663 C 0.28228 0.18052 0.75503
 C664 C 0.31904 0.24771 0.78415
 C665 C 0.25261 0.21797 0.82112
 C666 C 0.21412 0.32308 0.74104
 C667 C 0.24110 0.28572 0.67798
 C668 C 0.17681 0.25787 0.71451
 H669 H 0.27400 0.25798 0.69996
 H670 H 0.19824 0.22555 0.74280
 H671 H 0.28163 0.21822 0.78399
 H672 H 0.24139 0.30180 0.77442
 H673 H 0.29013 0.31667 0.75454
 H674 H 0.27957 0.30697 0.79306
 H675 H 0.20116 0.20364 0.70852
 H676 H 0.22521 0.17970 0.73619
 H677 H 0.29012 0.31460 0.70581
 H678 H 0.33066 0.24256 0.72300
 H679 H 0.17459 0.24020 0.77281
 H680 H 0.19926 0.21298 0.79423
 H681 H 0.28554 0.20615 0.70205
 H682 H 0.25976 0.22818 0.67593
 H683 H 0.23292 0.27361 0.82107
 H684 H 0.20646 0.29972 0.79545
 O685 O 0.19421 0.74345 0.29563
 O686 O 0.21232 0.70557 0.29958
 O687 O 0.25380 0.79386 0.30349
 O688 O 0.28887 0.80204 0.28519
 O689 O 0.20192 0.80238 0.24394
 O690 O 0.19653 0.78243 0.20616
 O691 O 0.31725 0.73148 0.23781
 O692 O 0.31811 0.74499 0.27711
 O693 O 0.26111 0.67937 0.23306
 O694 O 0.21838 0.67839 0.24377
 O695 O 0.26461 0.73553 0.18075
 O696 O 0.25420 0.77795 0.17956
 O697 O 0.30297 0.75096 0.20389
 O698 O 0.28207 0.79172 0.19854
 O699 O 0.24495 0.70181 0.19473
 O700 O 0.20462 0.69696 0.21550
 O701 O 0.29507 0.69374 0.25214
 O702 O 0.29480 0.71188 0.29355
 O703 O 0.17959 0.76231 0.26147
 O704 O 0.17960 0.75097 0.21896
 O705 O 0.23555 0.81687 0.26350
 O706 O 0.27874 0.81566 0.25044
 O707 O 0.23364 0.76051 0.31780
 O708 O 0.24826 0.71779 0.31643
 Zr709 Zr 0.23104 0.73713 0.28753
 O710 O 0.25265 0.71375 0.26630
 Zr711 Zr 0.25902 0.78656 0.26635
 O712 O 0.28241 0.76509 0.24506
 Zr713 Zr 0.20983 0.76534 0.23812
 O714 O 0.23114 0.74362 0.21490
 Zr715 Zr 0.28660 0.73020 0.26038
 O716 O 0.26586 0.75282 0.28359
 Zr717 Zr 0.23746 0.70958 0.23143
 O718 O 0.21408 0.73051 0.25366
 Zr719 Zr 0.26606 0.75887 0.21101
 O720 O 0.24349 0.78246 0.23149
 O721 O 0.22491 0.77143 0.27231
 O722 O 0.27198 0.72428 0.22573
 C723 C 0.17705 0.75306 0.28284
 C724 C 0.24365 0.78148 0.32051
 C725 C 0.21441 0.81952 0.25377
 C726 C 0.31990 0.74061 0.21645
 C727 C 0.28265 0.67680 0.24188
 C728 C 0.25542 0.71423 0.17796
 H729 H 0.25451 0.69794 0.27485
 H730 H 0.22265 0.74204 0.19908
 H731 H 0.21456 0.78187 0.28267
 H732 H 0.29831 0.77342 0.24364
 H733 H 0.31271 0.75263 0.29247
 H734 H 0.30304 0.79138 0.28213
 H735 H 0.20084 0.70754 0.20136
 H736 H 0.17646 0.73458 0.22587
 H737 H 0.31082 0.70373 0.29176
 H738 H 0.23852 0.71986 0.33146
 H739 H 0.23748 0.77236 0.17577
 H740 H 0.20980 0.79307 0.20018
 H741 H 0.20244 0.69972 0.28565
 H742 H 0.22487 0.67406 0.26005
 H743 H 0.27017 0.82012 0.23516
 H744 H 0.29647 0.79511 0.20888
 O745 O 0.30626 0.74594 0.70227
 O746 O 0.28829 0.70806 0.69854
 O747 O 0.24615 0.79609 0.69430
 O748 O 0.21132 0.80436 0.71292
 O749 O 0.29849 0.80477 0.75362
 O750 O 0.30399 0.78477 0.79156
 O751 O 0.18349 0.73351 0.76071
 O752 O 0.18239 0.74714 0.72129
 O753 O 0.23979 0.68156 0.76541
 O754 O 0.28255 0.68075 0.75432
 O755 O 0.23642 0.73752 0.81745
 O756 O 0.24679 0.78012 0.81829
 O757 O 0.19791 0.75291 0.79448
 O758 O 0.21850 0.79363 0.79963
 O759 O 0.25613 0.70389 0.80348
 O760 O 0.29631 0.69916 0.78256
 O761 O 0.20568 0.69589 0.74644
 O762 O 0.20572 0.71407 0.70492
 O763 O 0.32090 0.76474 0.73632
 O764 O 0.32114 0.75347 0.77880
 O765 O 0.26473 0.81918 0.73410
 O766 O 0.22162 0.81784 0.74746
 O767 O 0.26649 0.76288 0.68008
 O768 O 0.25224 0.72012 0.68177
 Zr769 Zr 0.26945 0.73952 0.71050
 O770 O 0.24800 0.71602 0.73192
 Zr771 Zr 0.24135 0.78882 0.73157
 O772 O 0.21816 0.76724 0.75310
 Zr773 Zr 0.29072 0.76770 0.75970
 O774 O 0.26966 0.74581 0.78309
 Zr775 Zr 0.21403 0.73237 0.73795
 O776 O 0.23457 0.75509 0.71454
 Zr777 Zr 0.26338 0.71180 0.76672
 O778 O 0.28656 0.73289 0.74433
 Zr779 Zr 0.23471 0.76097 0.78710
 O780 O 0.25703 0.78471 0.76638
 O781 O 0.27549 0.77382 0.72552
 O782 O 0.22885 0.72641 0.77254
 C783 C 0.32343 0.75550 0.71502
 C784 C 0.25622 0.78375 0.67728
 C785 C 0.28590 0.82188 0.74372
 C786 C 0.18096 0.74253 0.78207
 C787 C 0.21820 0.67897 0.75675
 C788 C 0.24568 0.71622 0.82026
 H789 H 0.24615 0.70023 0.72346
 H790 H 0.27824 0.74420 0.79887
 H791 H 0.28575 0.78429 0.71502
 H792 H 0.20223 0.77551 0.75457
 H793 H 0.18770 0.75481 0.70586
 H794 H 0.19723 0.79359 0.71598
 H795 H 0.30018 0.70977 0.79658
 H796 H 0.32422 0.73702 0.77211
 H797 H 0.18973 0.70589 0.70684
 H798 H 0.26191 0.72224 0.66669
 H799 H 0.26340 0.77429 0.82224
 H800 H 0.29070 0.79539 0.79748
 H801 H 0.29820 0.70218 0.71248
 H802 H 0.27581 0.67631 0.73820
 H803 H 0.23022 0.82225 0.76270
 H804 H 0.20419 0.79715 0.78916
 O805 O 0.19392 0.25493 0.20246
 O806 O 0.21186 0.29281 0.19864
 O807 O 0.25382 0.20473 0.19492
 O808 O 0.28900 0.19673 0.21345
 O809 O 0.20216 0.19586 0.25404
 O810 O 0.19677 0.21570 0.29184
 O811 O 0.31705 0.26731 0.26136
 O812 O 0.31791 0.25379 0.22195
 O813 O 0.26070 0.31906 0.26578
 O814 O 0.21792 0.31993 0.25458
 O815 O 0.26458 0.26282 0.31788
 O816 O 0.25426 0.22020 0.31875
 O817 O 0.30290 0.24772 0.29512
 O818 O 0.28245 0.20685 0.30019
 O819 O 0.24472 0.29651 0.30380
 O820 O 0.20428 0.30122 0.28269
 O821 O 0.29469 0.30488 0.24694
 O822 O 0.29443 0.28692 0.20544
 O823 O 0.17954 0.23589 0.23647
 O824 O 0.17958 0.24707 0.27896
 O825 O 0.23583 0.18157 0.23471
 O826 O 0.27902 0.18293 0.24810
 O827 O 0.23342 0.23801 0.18051
 O828 O 0.24783 0.28082 0.18211
 Zr829 Zr 0.23077 0.26133 0.21082
 O830 O 0.25231 0.28476 0.23228
 Zr831 Zr 0.25910 0.21199 0.23211
 O832 O 0.28242 0.23349 0.25367
 Zr833 Zr 0.20987 0.23292 0.26001
 O834 O 0.23108 0.25469 0.28345
 Zr835 Zr 0.28637 0.26844 0.23845
 O836 O 0.26570 0.24580 0.21501
 Zr837 Zr 0.23717 0.28878 0.26703
 O838 O 0.21387 0.26780 0.24457
 Zr839 Zr 0.26608 0.23956 0.28759
 O840 O 0.24363 0.21592 0.26685
 O841 O 0.22488 0.22697 0.22592
 O842 O 0.27176 0.27419 0.27298
 C843 C 0.17685 0.24523 0.21513
 C844 C 0.24356 0.21709 0.17784
 C845 C 0.21473 0.17881 0.24428
 C846 C 0.31974 0.25823 0.28277
 C847 C 0.28223 0.32171 0.25720
 C848 C 0.25532 0.28410 0.32063
 H849 H 0.25408 0.30060 0.22380
 H850 H 0.22261 0.25620 0.29920
 H851 H 0.21455 0.21651 0.21545
 H852 H 0.29838 0.22525 0.25522
 H853 H 0.31251 0.24622 0.20650
 H854 H 0.30314 0.20739 0.21674
 H855 H 0.20063 0.29064 0.29683
 H856 H 0.17638 0.26350 0.27214
 H857 H 0.31043 0.29510 0.20740
 H858 H 0.23811 0.27870 0.16698
 H859 H 0.23768 0.22601 0.32266
 H860 H 0.21012 0.20511 0.29789
 H861 H 0.20209 0.29869 0.21254
 H862 H 0.22444 0.32438 0.23842
 H863 H 0.27056 0.17845 0.26335
 H864 H 0.29679 0.20352 0.28990
 O865 O 0.74472 0.70167 0.30316
 O866 O 0.70707 0.69760 0.28459
 O867 O 0.79549 0.69374 0.24411
 O868 O 0.80365 0.71208 0.20893
 O869 O 0.80348 0.75348 0.29545
 O870 O 0.78333 0.79132 0.30029
 O871 O 0.73335 0.75966 0.17948
 O872 O 0.74698 0.72020 0.17913
 O873 O 0.68090 0.76423 0.23505
 O874 O 0.67977 0.75324 0.27788
 O875 O 0.73654 0.81674 0.23185
 O876 O 0.77912 0.81783 0.24278
 O877 O 0.75244 0.79369 0.19376
 O878 O 0.79278 0.79926 0.21484
 O879 O 0.70288 0.80254 0.25127
 O880 O 0.69791 0.78171 0.29153
 O881 O 0.69551 0.74525 0.20135
 O882 O 0.71377 0.70377 0.20212
 O883 O 0.76337 0.73592 0.31758
 O884 O 0.75198 0.77845 0.31711
 O885 O 0.81821 0.73390 0.26215
 O886 O 0.81720 0.74691 0.21897
 O887 O 0.76217 0.67940 0.26410
 O888 O 0.71965 0.68069 0.24899
 Zr889 Zr 0.73866 0.70970 0.26616
 O890 O 0.71534 0.73092 0.24410
 Zr891 Zr 0.78805 0.73098 0.23848
 O892 O 0.76665 0.75237 0.21475
 Zr893 Zr 0.76649 0.75925 0.28717
 O894 O 0.74473 0.78248 0.26553
 Zr895 Zr 0.73191 0.73697 0.21029
 O896 O 0.75447 0.71370 0.23146
 Zr897 Zr 0.71089 0.76581 0.25900
 O898 O 0.73181 0.74361 0.28275
 Zr899 Zr 0.76012 0.78648 0.23076
 O900 O 0.78370 0.76591 0.25364
 O901 O 0.77282 0.72499 0.27248
 O902 O 0.72571 0.77165 0.22461
 C903 C 0.75414 0.71455 0.32028
 C904 C 0.78315 0.67667 0.25430
 C905 C 0.82071 0.74368 0.28319
 C906 C 0.74233 0.78111 0.17679
 C907 C 0.67849 0.75547 0.21356
 C908 C 0.71520 0.81942 0.24085
 H909 H 0.69961 0.72234 0.24213
 H910 H 0.74300 0.79830 0.27390
 H911 H 0.78324 0.71462 0.28303
 H912 H 0.77505 0.75384 0.19895
 H913 H 0.75461 0.70479 0.18475
 H914 H 0.79322 0.71542 0.19458
 H915 H 0.70848 0.79579 0.29543
 H916 H 0.73557 0.77161 0.32009
 H917 H 0.70575 0.70558 0.18599
 H918 H 0.72168 0.66565 0.25891
 H919 H 0.77301 0.82191 0.25917
 H920 H 0.79396 0.79733 0.28706
 H921 H 0.70109 0.71155 0.29427
 H922 H 0.67541 0.73706 0.27125
 H923 H 0.82136 0.76235 0.22730
 H924 H 0.79657 0.78862 0.20085
 O925 O 0.69345 0.24688 0.79718
 O926 O 0.71155 0.20907 0.80112
 O927 O 0.75328 0.29725 0.80473
 O928 O 0.78822 0.30540 0.78617
 O929 O 0.70100 0.30591 0.74553
 O930 O 0.69543 0.28598 0.70771
 O931 O 0.81612 0.23467 0.73868
 O932 O 0.81725 0.24835 0.77800
 O933 O 0.75997 0.18278 0.73429
 O934 O 0.71714 0.18194 0.74548
 O935 O 0.76315 0.23879 0.68195
 O936 O 0.75279 0.28131 0.68082
 O937 O 0.80168 0.25408 0.70479
 O938 O 0.78094 0.29494 0.69954
 O939 O 0.74355 0.20511 0.69616
 O940 O 0.70342 0.20029 0.71705
 O941 O 0.79406 0.19712 0.75317
 O942 O 0.79400 0.21524 0.79460
 O943 O 0.67867 0.26575 0.76309
 O944 O 0.67843 0.25461 0.72059
 O945 O 0.73480 0.32031 0.76487
 O946 O 0.77786 0.31901 0.75148
 O947 O 0.73306 0.26398 0.81914
 O948 O 0.74759 0.22126 0.81775
 Zr949 Zr 0.73024 0.24059 0.78892
 O950 O 0.75171 0.21715 0.76762
 Zr951 Zr 0.75820 0.28996 0.76755
 O952 O 0.78143 0.26843 0.74612
 Zr953 Zr 0.70881 0.26884 0.73962
 O954 O 0.72993 0.24701 0.71632
 Zr955 Zr 0.78563 0.23356 0.76148
 O956 O 0.76507 0.25622 0.78478
 Zr957 Zr 0.73629 0.21298 0.73286
 O958 O 0.71308 0.23401 0.75516
 Zr959 Zr 0.76486 0.26219 0.71217
 O960 O 0.74248 0.28587 0.73278
 O961 O 0.72409 0.27490 0.77372
 O962 O 0.77078 0.22763 0.72694
 C963 C 0.67622 0.25643 0.78445
 C964 C 0.74319 0.28490 0.82180
 C965 C 0.71360 0.32302 0.75529
 C966 C 0.81864 0.24365 0.71725
 C967 C 0.78159 0.18022 0.74294
 C968 C 0.75394 0.21747 0.67929
 H969 H 0.75361 0.20134 0.77616
 H970 H 0.72133 0.24542 0.70055
 H971 H 0.71381 0.28535 0.78415
 H972 H 0.79735 0.27671 0.74458
 H973 H 0.81196 0.25596 0.79342
 H974 H 0.80236 0.29473 0.78300
 H975 H 0.69948 0.21097 0.70302
 H976 H 0.67538 0.23815 0.72739
 H977 H 0.81002 0.20710 0.79273
 H978 H 0.73794 0.22335 0.83283
 H979 H 0.73607 0.27568 0.67710
 H980 H 0.70869 0.29662 0.70171
 H981 H 0.70168 0.20315 0.78722
 H982 H 0.72404 0.17735 0.76152
 H983 H 0.76923 0.32343 0.73622
 H984 H 0.79541 0.29830 0.70981
 C985 C 0.06656 1.00333 1.13781
 C986 C 0.07056 0.98050 1.14933
 C987 C 0.08090 0.97958 1.17307
 C988 C 0.08718 1.00148 1.18513
 C989 C 0.08311 1.02431 1.17367
 C990 C 0.07279 1.02524 1.14990
 C991 C 0.06909 1.04825 1.13870
 C992 C 0.07547 1.06974 1.15063
 C993 C 0.08556 1.06883 1.17388
 C994 C 0.08933 1.04643 1.18537
 C995 C 0.08493 0.95657 1.18417
 C996 C 0.07896 0.93505 1.17212
 C997 C 0.06881 0.93593 1.14890
 C998 C 0.06460 0.95834 1.13755
 C999 C 0.09916 1.00045 1.20868
 C1000 C 0.11014 0.99977 1.22771
 C1001 C 0.05609 1.00416 1.11351
 C1002 C 0.04724 1.00422 1.09339
 H1003 H 0.06131 1.04987 1.12062
 H1004 H 0.07256 1.08718 1.14178
 H1005 H 0.09050 1.08557 1.18306
 H1006 H 0.09714 1.04667 1.20350
 H1007 H 0.09271 0.95494 1.20225
 H1008 H 0.08221 0.91761 1.18085
 H1009 H 0.06419 0.91917 1.13960
 H1010 H 0.05670 0.95806 1.11947
 C1011 C 0.56431 0.50455 0.64175
 C1012 C 0.56398 0.52576 0.65640
 C1013 C 0.57432 0.52512 0.68017
 C1014 C 0.58504 0.50333 0.68907
 C1015 C 0.58502 0.48202 0.67459
 C1016 C 0.57464 0.48263 0.65084
 C1017 C 0.57505 0.46115 0.63661
 C1018 C 0.58542 0.43970 0.64559
 C1019 C 0.59553 0.43910 0.66883
 C1020 C 0.59538 0.45995 0.68325
 C1021 C 0.57382 0.54654 0.69447
 C1022 C 0.56346 0.56801 0.68552
 C1023 C 0.55345 0.56867 0.66223
 C1024 C 0.55363 0.54783 0.64776
 C1025 C 0.59757 0.50321 0.71236
 C1026 C 0.60912 0.50308 0.73108
 C1027 C 0.55412 0.50523 0.61733
 C1028 C 0.54564 0.50548 0.59705
 H1029 H 0.56741 0.46070 0.61842
 H1030 H 0.58558 0.42345 0.63445
 H1031 H 0.60353 0.42238 0.67574
 H1032 H 0.60337 0.45855 0.70124
 H1033 H 0.58133 0.54689 0.71272
 H1034 H 0.56323 0.58422 0.69671
 H1035 H 0.54546 0.58540 0.65535
 H1036 H 0.54560 0.54923 0.62978
 C1037 C 0.43479 -0.00016 0.63968
 C1038 C 0.42219 0.02118 0.64686
 C1039 C 0.41153 0.02243 0.67034
 C1040 C 0.41349 0.00232 0.68647
 C1041 C 0.42646 -0.01883 0.67948
 C1042 C 0.43710 -0.02010 0.65599
 C1043 C 0.44978 -0.04154 0.64931
 C1044 C 0.45192 -0.06113 0.66541
 C1045 C 0.44158 -0.05985 0.68842
 C1046 C 0.42896 -0.03899 0.69547
 C1047 C 0.39893 0.04389 0.67709
 C1048 C 0.39691 0.06357 0.66108
 C1049 C 0.40731 0.06234 0.63811
 C1050 C 0.41983 0.04144 0.63098
 C1051 C 0.40087 0.00283 0.70958
 C1052 C 0.38944 0.00290 0.72825
 C1053 C 0.44530 -0.00156 0.61552
 C1054 C 0.45403 -0.00240 0.59546
 H1055 H 0.45815 -0.04338 0.63162
 H1056 H 0.46168 -0.07739 0.66001
 H1057 H 0.44334 -0.07510 0.70088
 H1058 H 0.42131 -0.03882 0.71357
 H1059 H 0.39062 0.04575 0.69481
 H1060 H 0.38725 0.07986 0.66656
 H1061 H 0.40569 0.07767 0.62573
 H1062 H 0.42761 0.04137 0.61292
 C1063 C -0.06145 0.49197 1.14174
 C1064 C -0.05231 0.50760 1.16012
 C1065 C -0.06427 0.50896 1.18296
 C1066 C -0.08534 0.49476 1.18723
 C1067 C -0.09429 0.47886 1.16897
 C1068 C -0.08219 0.47733 1.14623
 C1069 C -0.09134 0.46115 1.12834
 C1070 C -0.11189 0.44693 1.13279
 C1071 C -0.12386 0.44860 1.15495
 C1072 C -0.11532 0.46443 1.17284
 C1073 C -0.05487 0.52474 1.20104
 C1074 C -0.03419 0.53880 1.19667
 C1075 C -0.02249 0.53750 1.17433
 C1076 C -0.03137 0.52211 1.15619
 C1077 C -0.09815 0.49664 1.21017
 C1078 C -0.10975 0.49761 1.22871
 C1079 C -0.05012 0.49160 1.11793
 C1080 C -0.04110 0.49156 1.09798
 H1081 H -0.08269 0.45925 1.11079
 H1082 H -0.11861 0.43463 1.11893
 H1083 H -0.13988 0.43760 1.15830
 H1084 H -0.12541 0.46527 1.18966
 H1085 H -0.06336 0.52636 1.21869
 H1086 H -0.02723 0.55078 1.21070
 H1087 H -0.00643 0.54846 1.17103
 H1088 H -0.02161 0.52168 1.13913
 C1089 C -0.06362 0.50558 0.36068
 C1090 C -0.08402 0.52047 0.35523
 C1091 C -0.09592 0.51834 0.33230
 C1092 C -0.08706 0.50167 0.31478
 C1093 C -0.06632 0.48720 0.32002
 C1094 C -0.05459 0.48912 0.34306
 C1095 C -0.03398 0.47432 0.34795
 C1096 C -0.02521 0.45813 0.33056
 C1097 C -0.03668 0.45628 0.30803
 C1098 C -0.05702 0.47060 0.30271
 C1099 C -0.11666 0.53298 0.32751
 C1100 C -0.12507 0.54964 0.34463
 C1101 C -0.11323 0.55194 0.36693
 C1102 C -0.09300 0.53749 0.37231
 C1103 C -0.09946 0.49940 0.29151
 C1104 C -0.11054 0.49814 0.27255
 C1105 C -0.05253 0.50647 0.38471
 C1106 C -0.04350 0.50658 0.40475
 H1107 H -0.02440 0.47515 0.36520
 H1108 H -0.00941 0.44696 0.33460
 H1109 H -0.02979 0.44367 0.29459
 H1110 H -0.06534 0.46852 0.28494
 H1111 H -0.12666 0.53166 0.31056
 H1112 H -0.14086 0.56081 0.34056
 H1113 H -0.11982 0.56490 0.38017
 H1114 H -0.08445 0.53988 0.38994
 C1115 C 0.43555 1.00925 -0.13950
 C1116 C 0.41917 1.02777 -0.14706
 C1117 C 0.40804 1.02653 -0.17044
 C1118 C 0.41320 1.00666 -0.18602
 C1119 C 0.42992 0.98840 -0.17865
 C1120 C 0.44117 0.98971 -0.15533
 C1121 C 0.45778 0.97117 -0.14833
 C1122 C 0.46311 0.95191 -0.16392
 C1123 C 0.45208 0.95063 -0.18672
 C1124 C 0.43566 0.96861 -0.19409
 C1125 C 0.39179 1.04532 -0.17765
 C1126 C 0.38659 1.06469 -0.16215
 C1127 C 0.39735 1.06580 -0.13922
 C1128 C 0.41349 1.04762 -0.13167
 C1129 C 0.40052 1.00458 -0.20915
 C1130 C 0.38919 1.00317 -0.22794
 C1131 C 0.44626 1.00995 -0.11531
 C1132 C 0.45520 1.00993 -0.09523
 H1133 H 0.46684 0.97136 -0.13079
 H1134 H 0.47587 0.93790 -0.15828
 H1135 H 0.45628 0.93563 -0.19876
 H1136 H 0.42757 0.96687 -0.21201
 H1137 H 0.38304 1.04531 -0.19534
 H1138 H 0.37418 1.07894 -0.16798
 H1139 H 0.39323 1.08087 -0.12723
 H1140 H 0.42147 1.04932 -0.11371
 C1141 C 0.56596 0.49634 -0.13596
 C1142 C 0.56123 0.51682 -0.15108
 C1143 C 0.57193 0.51832 -0.17454
 C1144 C 0.58727 0.49934 -0.18274
 C1145 C 0.59163 0.47863 -0.16783
 C1146 C 0.58097 0.47715 -0.14435
 C1147 C 0.58574 0.45637 -0.12970
 C1148 C 0.60060 0.43757 -0.13803
 C1149 C 0.61099 0.43899 -0.16101
 C1150 C 0.60661 0.45923 -0.17582
 C1151 C 0.56706 0.53900 -0.18927
 C1152 C 0.55202 0.55770 -0.18106
 C1153 C 0.54154 0.55625 -0.15813
 C1154 C 0.54602 0.53610 -0.14323
 C1155 C 0.59933 0.50143 -0.20608
 C1156 C 0.61021 0.50268 -0.22505
 C1157 C 0.55567 0.49529 -0.11169
 C1158 C 0.54700 0.49502 -0.09158
 H1159 H 0.57803 0.45443 -0.11171
 H1160 H 0.60403 0.42180 -0.12660
 H1161 H 0.62247 0.42432 -0.16742
 H1162 H 0.61502 0.45944 -0.19359
 H1163 H 0.57478 0.54093 -0.20726
 H1164 H 0.54847 0.57338 -0.19257
 H1165 H 0.52986 0.57082 -0.15183
 H1166 H 0.53744 0.53581 -0.12554
 C1167 C 0.06427 -0.00119 0.36010
 C1168 C 0.08321 0.01568 0.35538
 C1169 C 0.09422 0.01644 0.33204
 C1170 C 0.08623 0.00030 0.31358
 C1171 C 0.06709 -0.01634 0.31818
 C1172 C 0.05606 -0.01710 0.34152
 C1173 C 0.03704 -0.03398 0.34575
 C1174 C 0.02913 -0.04967 0.32743
 C1175 C 0.03993 -0.04893 0.30460
 C1176 C 0.05871 -0.03249 0.29993
 C1177 C 0.11321 0.03337 0.32776
 C1178 C 0.12111 0.04910 0.34604
 C1179 C 0.11034 0.04836 0.36887
 C1180 C 0.09160 0.03189 0.37359
 C1181 C 0.09858 0.00010 0.29033
 C1182 C 0.10987 -0.00011 0.27159
 C1183 C 0.05333 -0.00223 0.38408
 C1184 C 0.04434 -0.00285 0.40403
 H1185 H 0.02808 -0.03524 0.36321
 H1186 H 0.01455 -0.06247 0.33096
 H1187 H 0.03372 -0.06115 0.29043
 H1188 H 0.06652 -0.03255 0.28188
 H1189 H 0.12213 0.03469 0.31029
 H1190 H 0.13566 0.06193 0.34245
 H1191 H 0.11654 0.06062 0.38301
 H1192 H 0.08381 0.03202 0.39164
 C1193 C 0.14000 1.06317 1.00617
 C1194 C 0.15742 1.05504 0.98906
 C1195 C 0.18045 1.06679 0.98750
 C1196 C 0.18590 1.08663 1.00300
 C1197 C 0.16861 1.09453 1.02036
 C1198 C 0.14567 1.08266 1.02206
 C1199 C 0.12878 1.09075 1.03968
 C1200 C 0.13439 1.11005 1.05517
 C1201 C 0.15674 1.12181 1.05337
 C1202 C 0.17367 1.11429 1.03613
 C1203 C 0.19753 1.05840 0.97022
 C1204 C 0.19202 1.03893 0.95491
 C1205 C 0.16951 1.02744 0.95642
 C1206 C 0.15234 1.03532 0.97326
 C1207 C 0.20905 1.09925 1.00093
 C1208 C 0.22783 1.11060 0.99976
 C1209 C 0.11601 1.05201 1.00684
 C1210 C 0.09607 1.04280 1.00681
 H1211 H 0.11114 1.08220 1.04174
 H1212 H 0.12128 1.11597 1.06858
 H1213 H 0.16100 1.13686 1.06537
 H1214 H 0.19069 1.12416 1.03528
 H1215 H 0.21528 1.06676 0.96839
 H1216 H 0.20530 1.03274 0.94180
 H1217 H 0.16533 1.01232 0.94449
 H1218 H 0.13510 1.02576 0.97378
 C1219 C 0.64113 0.56551 0.50518
 C1220 C 0.66230 0.55226 0.51189
 C1221 C 0.68557 0.56355 0.51046
 C1222 C 0.68751 0.58799 0.50234
 C1223 C 0.66634 0.60126 0.49568
 C1224 C 0.64309 0.58998 0.49708
 C1225 C 0.62219 0.60362 0.49029
 C1226 C 0.62422 0.62770 0.48237
 C1227 C 0.64695 0.63875 0.48105
 C1228 C 0.66782 0.62578 0.48761
 C1229 C 0.70647 0.54998 0.51727
 C1230 C 0.70445 0.52593 0.52529
 C1231 C 0.68170 0.51489 0.52670
 C1232 C 0.66080 0.52782 0.52010
 C1233 C 0.71110 0.59984 0.50130
 C1234 C 0.73013 0.61078 0.50059
 C1235 C 0.61736 0.55398 0.50626
 C1236 C 0.59743 0.54476 0.50668
 H1237 H 0.60409 0.59585 0.49104
 H1238 H 0.60805 0.63786 0.47727
 H1239 H 0.64844 0.65748 0.47493
 H1240 H 0.68508 0.63520 0.48631
 H1241 H 0.72456 0.55781 0.51647
 H1242 H 0.72062 0.51580 0.53044
 H1243 H 0.68023 0.49620 0.53295
 H1244 H 0.64351 0.51847 0.52152
 C1245 C 0.64028 0.43619 -0.00563
 C1246 C 0.64434 0.41412 -0.01828
 C1247 C 0.66728 0.40223 -0.01637
 C1248 C 0.68619 0.41273 -0.00221
 C1249 C 0.68231 0.43508 0.00997
 C1250 C 0.65926 0.44683 0.00830
 C1251 C 0.65576 0.46909 0.02079
 C1252 C 0.67450 0.47946 0.03449
 C1253 C 0.69703 0.46797 0.03609
 C1254 C 0.70100 0.44602 0.02401
 C1255 C 0.67070 0.37986 -0.02871
 C1256 C 0.65221 0.36983 -0.04297
 C1257 C 0.62987 0.38163 -0.04507
 C1258 C 0.62584 0.40348 -0.03283
 C1259 C 0.70953 0.40041 -0.00024
 C1260 C 0.72851 0.38935 0.00080
 C1261 C 0.61631 0.44740 -0.00609
 C1262 C 0.59634 0.45652 -0.00584
 H1263 H 0.63857 0.47875 0.02004
 H1264 H 0.67151 0.49651 0.04389
 H1265 H 0.71153 0.47610 0.04675
 H1266 H 0.71883 0.43775 0.02580
 H1267 H 0.68765 0.36985 -0.02743
 H1268 H 0.65522 0.35280 -0.05241
 H1269 H 0.61555 0.37378 -0.05617
 H1270 H 0.60814 0.41195 -0.03496
 C1271 C 0.13867 -0.06446 0.49389
 C1272 C 0.15640 -0.05643 0.51089
 C1273 C 0.17964 -0.06788 0.51185
 C1274 C 0.18496 -0.08731 0.49584
 C1275 C 0.16728 -0.09524 0.47874
 C1276 C 0.14413 -0.08366 0.47763
 C1277 C 0.12685 -0.09175 0.46022
 C1278 C 0.13226 -0.11080 0.44440
 C1279 C 0.15481 -0.12230 0.44565
 C1280 C 0.17213 -0.11476 0.46266
 C1281 C 0.19704 -0.05964 0.52905
 C1282 C 0.19164 -0.04059 0.54487
 C1283 C 0.16893 -0.02938 0.54394
 C1284 C 0.15144 -0.03713 0.52719
 C1285 C 0.20838 -0.09953 0.49719
 C1286 C 0.22734 -0.11062 0.49790
 C1287 C 0.11461 -0.05343 0.49355
 C1288 C 0.09455 -0.04448 0.49353
 H1289 H 0.10903 -0.08344 0.45861
 H1290 H 0.11887 -0.11669 0.43114
 H1291 H 0.15890 -0.13717 0.43341
 H1292 H 0.18928 -0.12446 0.46311
 H1293 H 0.21495 -0.06781 0.53045
 H1294 H 0.20516 -0.03451 0.55792
 H1295 H 0.16483 -0.01459 0.55627
 H1296 H 0.13405 -0.02782 0.52714
 C1297 C 0.35995 -0.06436 0.50250
 C1298 C 0.33998 -0.05433 0.51526
 C1299 C 0.31667 -0.06554 0.51364
 C1300 C 0.31350 -0.08670 0.49928
 C1301 C 0.33340 -0.09656 0.48628
 C1302 C 0.35670 -0.08537 0.48792
 C1303 C 0.37635 -0.09565 0.47486
 C1304 C 0.37306 -0.11638 0.46059
 C1305 C 0.35028 -0.12731 0.45898
 C1306 C 0.33061 -0.11760 0.47164
 C1307 C 0.29699 -0.05526 0.52661
 C1308 C 0.30023 -0.03447 0.54079
 C1309 C 0.32302 -0.02351 0.54238
 C1310 C 0.34273 -0.03325 0.52981
 C1311 C 0.29013 -0.09906 0.49864
 C1312 C 0.27130 -0.11038 0.49824
 C1313 C 0.38385 -0.05309 0.50420
 C1314 C 0.40385 -0.04404 0.50506
 H1315 H 0.39443 -0.08783 0.47552
 H1316 H 0.38829 -0.12399 0.45073
 H1317 H 0.34782 -0.14340 0.44787
 H1318 H 0.31324 -0.12675 0.46975
 H1319 H 0.27892 -0.06313 0.52589
 H1320 H 0.28498 -0.02683 0.55058
 H1321 H 0.32544 -0.00737 0.55343
 H1322 H 0.36011 -0.02409 0.53161
 C1323 C -0.13854 0.43481 1.00734
 C1324 C -0.14785 0.42198 1.02767
 C1325 C -0.17154 0.41158 1.02654
 C1326 C -0.18566 0.41387 1.00500
 C1327 C -0.17659 0.42716 0.98488
 C1328 C -0.15296 0.43769 0.98606
 C1329 C -0.14422 0.45080 0.96565
 C1330 C -0.15842 0.45341 0.94469
 C1331 C -0.18151 0.44308 0.94354
 C1332 C -0.19059 0.43007 0.96335
 C1333 C -0.18051 0.39890 1.04712
 C1334 C -0.16640 0.39640 1.06815
 C1335 C -0.14315 0.40639 1.06917
 C1336 C -0.13390 0.41910 1.04924
 C1337 C -0.20885 0.40132 1.00309
 C1338 C -0.22755 0.38987 1.00179
 C1339 C -0.11405 0.44476 1.00812
 C1340 C -0.09373 0.45307 1.00835
 H1341 H -0.12637 0.45918 0.96565
 H1342 H -0.15145 0.46350 0.92925
 H1343 H -0.19247 0.44516 0.92723
 H1344 H -0.20868 0.42242 0.96164
 H1345 H -0.19852 0.39090 1.04723
 H1346 H -0.17355 0.38666 1.08372
 H1347 H -0.13223 0.40431 1.08551
 H1348 H -0.11575 0.42662 1.05094
 C1349 C -0.13775 0.56390 0.49297
 C1350 C -0.14730 0.57682 0.47271
 C1351 C -0.17074 0.58773 0.47412
 C1352 C -0.18439 0.58581 0.49585
 C1353 C -0.17509 0.57244 0.51591
 C1354 C -0.15171 0.56141 0.51447
 C1355 C -0.14273 0.54823 0.53483
 C1356 C -0.15647 0.54600 0.55598
 C1357 C -0.17933 0.55680 0.55738
 C1358 C -0.18863 0.56990 0.53763
 C1359 C -0.17994 0.60052 0.45361
 C1360 C -0.16630 0.60262 0.43238
 C1361 C -0.14330 0.59210 0.43107
 C1362 C -0.13383 0.57929 0.45093
 C1363 C -0.20738 0.59869 0.49795
 C1364 C -0.22598 0.61028 0.49936
 C1365 C -0.11345 0.55350 0.49197
 C1366 C -0.09329 0.54479 0.49185
 H1367 H -0.12505 0.53948 0.53463
 H1368 H -0.14932 0.53584 0.57137
 H1369 H -0.18994 0.55501 0.57385
 H1370 H -0.20653 0.57792 0.53955
 H1371 H -0.19779 0.60892 0.45371
 H1372 H -0.17362 0.61245 0.41686
 H1373 H -0.13274 0.59386 0.41458
 H1374 H -0.11589 0.57134 0.44902
 C1375 C 0.36106 1.06627 -0.00767
 C1376 C 0.35152 1.07939 -0.02781
 C1377 C 0.32787 1.08987 -0.02650
 C1378 C 0.31397 1.08731 -0.00498
 C1379 C 0.32330 1.07377 0.01497
 C1380 C 0.34690 1.06320 0.01362
 C1381 C 0.35587 1.04982 0.03387
 C1382 C 0.34193 1.04699 0.05481
 C1383 C 0.31886 1.05736 0.05612
 C1384 C 0.30956 1.07063 0.03649
 C1385 C 0.31870 1.10288 -0.04688
 C1386 C 0.33255 1.10557 -0.06792
 C1387 C 0.35572 1.09542 -0.06915
 C1388 C 0.36519 1.08244 -0.04939
 C1389 C 0.29066 1.09964 -0.00296
 C1390 C 0.27179 1.11082 -0.00154
 C1391 C 0.38548 1.05611 -0.00862
 C1392 C 0.40569 1.04747 -0.00873
 H1393 H 0.37370 1.04140 0.03373
 H1394 H 0.34907 1.03670 0.07012
 H1395 H 0.30810 1.05511 0.07244
 H1396 H 0.29149 1.07830 0.03834
 H1397 H 0.30073 1.11099 -0.04684
 H1398 H 0.32524 1.11555 -0.08335
 H1399 H 0.36641 1.09756 -0.08553
 H1400 H 0.38328 1.07483 -0.05123
 C1401 C 0.00575 1.13458 1.06541
 C1402 C 0.02383 1.14231 1.08214
 C1403 C 0.02184 1.16554 1.09337
 C1404 C 0.00172 1.18084 1.08786
 C1405 C -0.01614 1.17328 1.07084
 C1406 C -0.01412 1.15008 1.05955
 C1407 C -0.03226 1.14288 1.04264
 C1408 C -0.05182 1.15816 1.03704
 C1409 C -0.05379 1.18083 1.04810
 C1410 C -0.03621 1.18840 1.06483
 C1411 C 0.04015 1.17289 1.11006
 C1412 C 0.05982 1.15770 1.11552
 C1413 C 0.06173 1.13497 1.10456
 C1414 C 0.04400 1.12726 1.08805
 C1415 C -0.00086 1.20402 1.10026
 C1416 C -0.00244 1.22290 1.11133
 C1417 C 0.00720 1.11051 1.05458
 C1418 C 0.00772 1.09052 1.04552
 H1419 H -0.03153 1.12542 1.03354
 H1420 H -0.06552 1.15236 1.02406
 H1421 H -0.06902 1.19264 1.04370
 H1422 H -0.03850 1.20622 1.07294
 H1423 H 0.03952 1.19044 1.11899
 H1424 H 0.07367 1.16363 1.12829
 H1425 H 0.07707 1.12326 1.10883
 H1426 H 0.04630 1.10944 1.07996
 C1427 C 0.50750 0.63989 0.56502
 C1428 C 0.52239 0.64477 0.58555
 C1429 C 0.52148 0.66804 0.59680
 C1430 C 0.50555 0.68623 0.58753
 C1431 C 0.49097 0.68149 0.56678
 C1432 C 0.49196 0.65824 0.55546
 C1433 C 0.47714 0.65388 0.53476
 C1434 C 0.46179 0.67198 0.52553
 C1435 C 0.46081 0.69470 0.53662
 C1436 C 0.47519 0.69951 0.55703
 C1437 C 0.53657 0.67252 0.61729
 C1438 C 0.55205 0.65449 0.62643
 C1439 C 0.55284 0.63169 0.61550
 C1440 C 0.53824 0.62678 0.59528
 C1441 C 0.50378 0.70949 0.59986
 C1442 C 0.50275 0.72833 0.61104
 C1443 C 0.50777 0.61584 0.55409
 C1444 C 0.50770 0.59578 0.54521
 H1445 H 0.47728 0.63650 0.52549
 H1446 H 0.45059 0.66834 0.50967
 H1447 H 0.44886 0.70870 0.52938
 H1448 H 0.47385 0.71747 0.56502
 H1449 H 0.53665 0.68999 0.62640
 H1450 H 0.56351 0.65824 0.64207
 H1451 H 0.56488 0.61773 0.62268
 H1452 H 0.53955 0.60878 0.58737
 C1453 C -0.00687 0.63835 0.43487
 C1454 C 0.01095 0.65530 0.44278
 C1455 C 0.01215 0.67881 0.43187
 C1456 C -0.00448 0.68523 0.41316
 C1457 C -0.02266 0.66850 0.40563
 C1458 C -0.02384 0.64497 0.41651
 C1459 C -0.04204 0.62848 0.40858
 C1460 C -0.05865 0.63507 0.39043
 C1461 C -0.05753 0.65809 0.37981
 C1462 C -0.03979 0.67469 0.38725
 C1463 C 0.03019 0.69540 0.43994
 C1464 C 0.04658 0.68895 0.45833
 C1465 C 0.04541 0.66597 0.46902
 C1466 C 0.02785 0.64926 0.46141
 C1467 C -0.00243 0.70864 0.40097
 C1468 C -0.00118 0.72758 0.38986
 C1469 C -0.00736 0.61400 0.44532
 C1470 C -0.00715 0.59385 0.45415
 H1471 H -0.04366 0.61038 0.41632
 H1472 H -0.07247 0.62225 0.38459
 H1473 H -0.07050 0.66314 0.36576
 H1474 H -0.03972 0.69240 0.37850
 H1475 H 0.03177 0.71351 0.43220
 H1476 H 0.06025 0.70187 0.46431
 H1477 H 0.05818 0.66105 0.48330
 H1478 H 0.02766 0.63162 0.47030
 C1479 C 0.49481 1.14049 -0.06704
 C1480 C 0.51673 1.14902 -0.07758
 C1481 C 0.51775 1.17283 -0.08780
 C1482 C 0.49686 1.18797 -0.08741
 C1483 C 0.47494 1.17946 -0.07690
 C1484 C 0.47389 1.15561 -0.06674
 C1485 C 0.45170 1.14738 -0.05659
 C1486 C 0.43113 1.16230 -0.05650
 C1487 C 0.43218 1.18566 -0.06635
 C1488 C 0.45380 1.19425 -0.07644
 C1489 C 0.53979 1.18090 -0.09842
 C1490 C 0.56024 1.16585 -0.09895
 C1491 C 0.55926 1.14257 -0.08892
 C1492 C 0.53783 1.13416 -0.07831
 C1493 C 0.49756 1.21169 -0.09911
 C1494 C 0.49803 1.23087 -0.10987
 C1495 C 0.49394 1.11626 -0.05635
 C1496 C 0.49378 1.09620 -0.04733
 H1497 H 0.44999 1.12934 -0.04871
 H1498 H 0.41428 1.15569 -0.04872
 H1499 H 0.41616 1.19718 -0.06623
 H1500 H 0.45375 1.21257 -0.08383
 H1501 H 0.54148 1.19890 -0.10639
 H1502 H 0.57692 1.17230 -0.10719
 H1503 H 0.57520 1.13094 -0.08936
 H1504 H 0.53797 1.11589 -0.07078
 C1505 C 0.50777 0.36235 -0.06188
 C1506 C 0.48680 0.34781 -0.05805
 C1507 C 0.48482 0.32463 -0.06940
 C1508 C 0.50382 0.31615 -0.08447
 C1509 C 0.52508 0.33041 -0.08779
 C1510 C 0.52705 0.35360 -0.07647
 C1511 C 0.54837 0.36762 -0.08020
 C1512 C 0.56722 0.35897 -0.09471
 C1513 C 0.56531 0.33628 -0.10578
 C1514 C 0.54454 0.32208 -0.10241
 C1515 C 0.46363 0.31049 -0.06548
 C1516 C 0.44490 0.31899 -0.05072
 C1517 C 0.44682 0.34165 -0.03960
 C1518 C 0.46747 0.35597 -0.04316
 C1519 C 0.50113 0.29331 -0.09744
 C1520 C 0.49931 0.27481 -0.10907
 C1521 C 0.50911 0.38653 -0.05129
 C1522 C 0.50943 0.40662 -0.04246
 H1523 H 0.55070 0.38536 -0.07192
 H1524 H 0.58341 0.36992 -0.09736
 H1525 H 0.58002 0.32962 -0.11701
 H1526 H 0.54396 0.30451 -0.11130
 H1527 H 0.46133 0.29272 -0.07371
 H1528 H 0.42882 0.30793 -0.04790
 H1529 H 0.43223 0.34817 -0.02815
 H1530 H 0.46812 0.37345 -0.03409
 C1531 C 0.00262 -0.13889 0.43404
 C1532 C -0.02000 -0.14873 0.42636
 C1533 C -0.02092 -0.17242 0.41597
 C1534 C 0.00077 -0.18610 0.41327
 C1535 C 0.02335 -0.17637 0.42115
 C1536 C 0.02429 -0.15267 0.43153
 C1537 C 0.04711 -0.14324 0.43907
 C1538 C 0.06839 -0.15683 0.43642
 C1539 C 0.06747 -0.18002 0.42629
 C1540 C 0.04525 -0.18978 0.41873
 C1541 C -0.04371 -0.18183 0.40829
 C1542 C -0.06498 -0.16820 0.41078
 C1543 C -0.06408 -0.14503 0.42093
 C1544 C -0.04191 -0.13532 0.42869
 C1545 C 0.00003 -0.20950 0.40106
 C1546 C -0.00046 -0.22839 0.38991
 C1547 C 0.00354 -0.11460 0.44448
 C1548 C 0.00398 -0.09448 0.45326
 H1549 H 0.04876 -0.12529 0.44706
 H1550 H 0.08569 -0.14935 0.44228
 H1551 H 0.08404 -0.19050 0.42425
 H1552 H 0.04544 -0.20793 0.41105
 H1553 H -0.04535 -0.19980 0.40037
 H1554 H -0.08224 -0.17568 0.40479
 H1555 H -0.08066 -0.13452 0.42283
 H1556 H -0.04216 -0.11722 0.43647
 C1557 C 0.49704 -0.13832 0.56617
 C1558 C 0.52006 -0.14875 0.57166
 C1559 C 0.52143 -0.17234 0.58237
 C1560 C 0.49980 -0.18537 0.58748
 C1561 C 0.47679 -0.17500 0.58194
 C1562 C 0.47540 -0.15138 0.57128
 C1563 C 0.45220 -0.14128 0.56613
 C1564 C 0.43096 -0.15412 0.57144
 C1565 C 0.43231 -0.17723 0.58185
 C1566 C 0.45492 -0.18766 0.58703
 C1567 C 0.54462 -0.18230 0.58795
 C1568 C 0.56585 -0.16929 0.58311
 C1569 C 0.56453 -0.14624 0.57258
 C1570 C 0.54195 -0.13600 0.56687
 C1571 C 0.50114 -0.20878 0.59974
 C1572 C 0.50199 -0.22771 0.61092
 C1573 C 0.49568 -0.11412 0.55545
 C1574 C 0.49493 -0.09403 0.54650
 H1575 H 0.45021 -0.12335 0.55805
 H1576 H 0.41336 -0.14609 0.56745
 H1577 H 0.41577 -0.18713 0.58597
 H1578 H 0.45503 -0.20572 0.59505
 H1579 H 0.54658 -0.20020 0.59609
 H1580 H 0.58343 -0.17716 0.58755
 H1581 H 0.58108 -0.13621 0.56883
 H1582 H 0.54187 -0.11799 0.55873
 C1583 C -0.00349 0.35655 1.06632
 C1584 C -0.02547 0.34320 1.06835
 C1585 C -0.02519 0.31940 1.07868
 C1586 C -0.00296 0.30917 1.08701
 C1587 C 0.01902 0.32247 1.08493
 C1588 C 0.01877 0.34624 1.07453
 C1589 C 0.04096 0.35927 1.07281
 C1590 C 0.06274 0.34915 1.08121
 C1591 C 0.06298 0.32592 1.09142
 C1592 C 0.04144 0.31263 1.09326
 C1593 C -0.04739 0.30642 1.08065
 C1594 C -0.06927 0.31674 1.07277
 C1595 C -0.06956 0.34004 1.06273
 C1596 C -0.04796 0.35319 1.06045
 C1597 C -0.00291 0.28572 1.09926
 C1598 C -0.00290 0.26686 1.11056
 C1599 C -0.00373 0.38091 1.05592
 C1600 C -0.00366 0.40112 1.04724
 H1601 H 0.04171 0.37742 1.06504
 H1602 H 0.07953 0.35940 1.07981
 H1603 H 0.07994 0.31813 1.09794
 H1604 H 0.04256 0.29460 1.10126
 H1605 H -0.04807 0.28821 1.08827
 H1606 H -0.08610 0.30660 1.07451
 H1607 H -0.08661 0.34799 1.05666
 H1608 H -0.04910 0.37125 1.05252
 C1609 C 0.75456 0.31178 0.11063
 C1610 C 0.77643 0.31851 0.09883
 C1611 C 0.77551 0.32938 0.07532
 C1612 C 0.75272 0.33364 0.06386
 C1613 C 0.73089 0.32642 0.07542
 C1614 C 0.73181 0.31543 0.09887
 C1615 C 0.70971 0.30849 0.11012
 C1616 C 0.68738 0.31231 0.09854
 C1617 C 0.68650 0.32308 0.07562
 C1618 C 0.70795 0.33010 0.06410
 C1619 C 0.79761 0.33593 0.06385
 C1620 C 0.81997 0.33198 0.07534
 C1621 C 0.82086 0.32148 0.09840
 C1622 C 0.79939 0.31476 0.11009
 C1623 C 0.75164 0.34683 0.04094
 C1624 C 0.75091 0.35873 0.02246
 C1625 C 0.75532 0.30136 0.13495
 C1626 C 0.75530 0.29271 0.15515
 H1627 H 0.70944 0.30004 0.12795
 H1628 H 0.67066 0.30688 0.10742
 H1629 H 0.66910 0.32601 0.06669
 H1630 H 0.70633 0.33835 0.04624
 H1631 H 0.79785 0.34406 0.04587
 H1632 H 0.83669 0.33713 0.06632
 H1633 H 0.83827 0.31849 0.10727
 H1634 H 0.80100 0.30659 0.12799
 C1635 C 0.25319 0.81372 0.60903
 C1636 C 0.26796 0.80491 0.58990
 C1637 C 0.26650 0.81585 0.56643
 C1638 C 0.25031 0.83555 0.56226
 C1639 C 0.23528 0.84412 0.58127
 C1640 C 0.23673 0.83319 0.60473
 C1641 C 0.22160 0.84218 0.62348
 C1642 C 0.20552 0.86141 0.61918
 C1643 C 0.20411 0.87211 0.59625
 C1644 C 0.21876 0.86365 0.57745
 C1645 C 0.28149 0.80682 0.54762
 C1646 C 0.29748 0.78750 0.55186
 C1647 C 0.29894 0.77680 0.57481
 C1648 C 0.28439 0.78533 0.59368
 C1649 C 0.24987 0.84785 0.53883
 C1650 C 0.24958 0.85915 0.51997
 C1651 C 0.25487 0.80285 0.63313
 C1652 C 0.25581 0.79407 0.65327
 H1653 H 0.22203 0.83447 0.64164
 H1654 H 0.19410 0.86805 0.63374
 H1655 H 0.19158 0.88705 0.59299
 H1656 H 0.21695 0.87255 0.55992
 H1657 H 0.28096 0.81453 0.52946
 H1658 H 0.30881 0.78079 0.53726
 H1659 H 0.31140 0.76180 0.57801
 H1660 H 0.28616 0.77643 0.61122
 C1661 C 0.74945 0.68694 0.61047
 C1662 C 0.72899 0.67385 0.60172
 C1663 C 0.72979 0.66264 0.57845
 C1664 C 0.75105 0.66457 0.56407
 C1665 C 0.77134 0.67801 0.57262
 C1666 C 0.77054 0.68925 0.59589
 C1667 C 0.79111 0.70252 0.60409
 C1668 C 0.81185 0.70462 0.58971
 C1669 C 0.81263 0.69362 0.56697
 C1670 C 0.79266 0.68043 0.55843
 C1671 C 0.70914 0.64955 0.57013
 C1672 C 0.68832 0.64759 0.58441
 C1673 C 0.68755 0.65854 0.60718
 C1674 C 0.70760 0.67154 0.61583
 C1675 C 0.75227 0.65191 0.54096
 C1676 C 0.75272 0.64058 0.52219
 C1677 C 0.74897 0.69769 0.63460
 C1678 C 0.74883 0.70653 0.65466
 H1679 H 0.79137 0.71141 0.62164
 H1680 H 0.82741 0.71485 0.59626
 H1681 H 0.82878 0.69530 0.55587
 H1682 H 0.79409 0.67222 0.54060
 H1683 H 0.70882 0.64074 0.55253
 H1684 H 0.67270 0.63752 0.57776
 H1685 H 0.67134 0.65695 0.61820
 H1686 H 0.70612 0.67975 0.63365
 C1687 C 0.24439 0.18630 0.11013
 C1688 C 0.23304 0.16343 0.10637
 C1689 C 0.23480 0.15180 0.08337
 C1690 C 0.24760 0.16327 0.06415
 C1691 C 0.25863 0.18630 0.06779
 C1692 C 0.25706 0.19784 0.09087
 C1693 C 0.26834 0.22082 0.09411
 C1694 C 0.28079 0.23207 0.07510
 C1695 C 0.28231 0.22078 0.05254
 C1696 C 0.27139 0.19815 0.04882
 C1697 C 0.22368 0.12871 0.08020
 C1698 C 0.21081 0.11766 0.09905
 C1699 C 0.20892 0.12914 0.12147
 C1700 C 0.21992 0.15173 0.12522
 C1701 C 0.24925 0.15127 0.04070
 C1702 C 0.24997 0.14041 0.02167
 C1703 C 0.24366 0.19756 0.13401
 C1704 C 0.24338 0.20661 0.15398
 H1705 H 0.26761 0.23034 0.11132
 H1706 H 0.28931 0.24966 0.07789
 H1707 H 0.29201 0.22960 0.03783
 H1708 H 0.27306 0.19006 0.03096
 H1709 H 0.22485 0.11892 0.06319
 H1710 H 0.20231 0.10007 0.09623
 H1711 H 0.19895 0.12046 0.13607
 H1712 H 0.21798 0.15991 0.14300
 C1713 C 0.25199 0.18828 0.88951
 C1714 C 0.22926 0.18361 0.90070
 C1715 C 0.22849 0.17259 0.92414
 C1716 C 0.25044 0.16635 0.93626
 C1717 C 0.27318 0.17152 0.92533
 C1718 C 0.27396 0.18244 0.90184
 C1719 C 0.29690 0.18714 0.89115
 C1720 C 0.31847 0.18126 0.90334
 C1721 C 0.31771 0.17067 0.92635
 C1722 C 0.29538 0.16583 0.93731
 C1723 C 0.20557 0.16789 0.93486
 C1724 C 0.18400 0.17394 0.92279
 C1725 C 0.18474 0.18474 0.89988
 C1726 C 0.20705 0.18956 0.88887
 C1727 C 0.24965 0.15327 0.95925
 C1728 C 0.24933 0.14147 0.97780
 C1729 C 0.25269 0.19881 0.86524
 C1730 C 0.25289 0.20752 0.84506
 H1731 H 0.29842 0.19540 0.87330
 H1732 H 0.33585 0.18498 0.89490
 H1733 H 0.33450 0.16615 0.93575
 H1734 H 0.29572 0.15768 0.95527
 H1735 H 0.20406 0.15957 0.95268
 H1736 H 0.16662 0.17023 0.93126
 H1737 H 0.16793 0.18941 0.89057
 H1738 H 0.20667 0.19798 0.87103
 C1739 C 0.75380 0.68589 0.38910
 C1740 C 0.73122 0.68206 0.40088
 C1741 C 0.73071 0.67161 0.42459
 C1742 C 0.75277 0.66509 0.43637
 C1743 C 0.77537 0.66943 0.42483
 C1744 C 0.77589 0.67978 0.40108
 C1745 C 0.79869 0.68362 0.38978
 C1746 C 0.82037 0.67746 0.40162
 C1747 C 0.81986 0.66746 0.42490
 C1748 C 0.79768 0.66346 0.43646
 C1749 C 0.70793 0.66775 0.43593
 C1750 C 0.68625 0.67403 0.42419
 C1751 C 0.68673 0.68427 0.40101
 C1752 C 0.70890 0.68828 0.38940
 C1753 C 0.75218 0.65248 0.45960
 C1754 C 0.75196 0.64100 0.47835
 C1755 C 0.75425 0.69594 0.36462
 C1756 C 0.75438 0.70433 0.34432
 H1757 H 0.80002 0.69140 0.37170
 H1758 H 0.83765 0.68050 0.39270
 H1759 H 0.83674 0.66273 0.43404
 H1760 H 0.79823 0.65574 0.45461
 H1761 H 0.70665 0.65993 0.45398
 H1762 H 0.66899 0.67096 0.43313
 H1763 H 0.66984 0.68913 0.39196
 H1764 H 0.70833 0.69628 0.37138
 C1765 C 0.24406 0.81254 0.38808
 C1766 C 0.23165 0.83487 0.39174
 C1767 C 0.23324 0.84676 0.41464
 C1768 C 0.24686 0.83603 0.43387
 C1769 C 0.25893 0.81352 0.43033
 C1770 C 0.25757 0.80175 0.40734
 C1771 C 0.26991 0.77932 0.40419
 C1772 C 0.28321 0.76882 0.42321
 C1773 C 0.28453 0.78033 0.44568
 C1774 C 0.27256 0.80244 0.44931
 C1775 C 0.22114 0.86936 0.41768
 C1776 C 0.20742 0.87963 0.39885
 C1777 C 0.20563 0.86785 0.37656
 C1778 C 0.21766 0.84578 0.37290
 C1779 C 0.24842 0.84832 0.45718
 C1780 C 0.24924 0.85943 0.47606
 C1781 C 0.24355 0.80114 0.36427
 C1782 C 0.24340 0.79202 0.34434
 H1783 H 0.26938 0.76965 0.38705
 H1784 H 0.29253 0.75164 0.42049
 H1785 H 0.29488 0.77210 0.46039
 H1786 H 0.27412 0.81073 0.46711
 H1787 H 0.22220 0.87936 0.43458
 H1788 H 0.19816 0.89684 0.40158
 H1789 H 0.19493 0.87588 0.36199
 H1790 H 0.21578 0.83735 0.35521
 C1791 C 0.74470 0.31494 0.88979
 C1792 C 0.72931 0.33485 0.89541
 C1793 C 0.73118 0.34630 0.91851
 C1794 C 0.74808 0.33746 0.93602
 C1795 C 0.76315 0.31728 0.93057
 C1796 C 0.76150 0.30601 0.90735
 C1797 C 0.77686 0.28593 0.90226
 C1798 C 0.79335 0.27724 0.91961
 C1799 C 0.79494 0.28826 0.94232
 C1800 C 0.78005 0.30807 0.94783
 C1801 C 0.71599 0.36654 0.92350
 C1802 C 0.69905 0.37486 0.90641
 C1803 C 0.69700 0.36344 0.88395
 C1804 C 0.71201 0.34375 0.87836
 C1805 C 0.74994 0.34933 0.95951
 C1806 C 0.75080 0.36006 0.97861
 C1807 C 0.74374 0.30411 0.86574
 C1808 C 0.74327 0.29530 0.84568
 H1809 H 0.77626 0.27673 0.88487
 H1810 H 0.80494 0.26186 0.91542
 H1811 H 0.80777 0.28144 0.95573
 H1812 H 0.78195 0.31606 0.96573
 H1813 H 0.71708 0.37619 0.94060
 H1814 H 0.68747 0.39025 0.91063
 H1815 H 0.68377 0.36991 0.87076
 H1816 H 0.70981 0.33553 0.86060
 C1817 C 0.81394 0.38696 0.24252
 C1818 C 0.80275 0.40585 0.25601
 C1819 C 0.81415 0.42907 0.25777
 C1820 C 0.83670 0.43322 0.24611
 C1821 C 0.84769 0.41445 0.23228
 C1822 C 0.83616 0.39133 0.23031
 C1823 C 0.84733 0.37296 0.21614
 C1824 C 0.86930 0.37730 0.20429
 C1825 C 0.88071 0.39982 0.20643
 C1826 C 0.87018 0.41819 0.22035
 C1827 C 0.80265 0.44765 0.27136
 C1828 C 0.78051 0.44342 0.28291
 C1829 C 0.76936 0.42072 0.28123
 C1830 C 0.78028 0.40208 0.26797
 C1831 C 0.84879 0.45666 0.24839
 C1832 C 0.85979 0.47565 0.24973
 C1833 C 0.80303 0.36283 0.24196
 C1834 C 0.79402 0.34278 0.24212
 H1835 H 0.83917 0.35513 0.21398
 H1836 H 0.87755 0.36307 0.19346
 H1837 H 0.89784 0.40308 0.19729
 H1838 H 0.87990 0.43529 0.22166
 H1839 H 0.81063 0.46561 0.27317
 H1840 H 0.77195 0.45784 0.29322
 H1841 H 0.75216 0.41753 0.29024
 H1842 H 0.77087 0.38476 0.26714
 C1843 C 0.31580 0.89018 0.74405
 C1844 C 0.30476 0.90884 0.75796
 C1845 C 0.31574 0.93229 0.75924
 C1846 C 0.33764 0.93693 0.74659
 C1847 C 0.34844 0.91841 0.73230
 C1848 C 0.33751 0.89495 0.73107
 C1849 C 0.34871 0.87667 0.71681
 C1850 C 0.37008 0.88146 0.70406
 C1851 C 0.38073 0.90443 0.70519
 C1852 C 0.37013 0.92275 0.71912
 C1853 C 0.30445 0.95063 0.77332
 C1854 C 0.28288 0.94595 0.78577
 C1855 C 0.27213 0.92303 0.78451
 C1856 C 0.28287 0.90462 0.77080
 C1857 C 0.34940 0.96055 0.74850
 C1858 C 0.36001 0.97976 0.74961
 C1859 C 0.30511 0.86597 0.74350
 C1860 C 0.29633 0.84583 0.74337
 H1861 H 0.34108 0.85854 0.71531
 H1862 H 0.37839 0.86728 0.69324
 H1863 H 0.39728 0.90807 0.69520
 H1864 H 0.37909 0.94032 0.71939
 H1865 H 0.31212 0.96875 0.77482
 H1866 H 0.27447 0.96019 0.79644
 H1867 H 0.25537 0.91950 0.79420
 H1868 H 0.27380 0.88710 0.77035
 C1869 C 0.18442 0.88780 0.25262
 C1870 C 0.18713 0.90376 0.27266
 C1871 C 0.17643 0.92738 0.27183
 C1872 C 0.16309 0.93485 0.25098
 C1873 C 0.16054 0.91896 0.23086
 C1874 C 0.17122 0.89536 0.23169
 C1875 C 0.16827 0.87973 0.21142
 C1876 C 0.15511 0.88721 0.19094
 C1877 C 0.14467 0.91030 0.19013
 C1878 C 0.14731 0.92608 0.20979
 C1879 C 0.17925 0.94298 0.29213
 C1880 C 0.19228 0.93546 0.31267
 C1881 C 0.20276 0.91237 0.31348
 C1882 C 0.20026 0.89663 0.29376
 C1883 C 0.15092 0.95833 0.25061
 C1884 C 0.13986 0.97733 0.25023
 C1885 C 0.19510 0.86358 0.25351
 C1886 C 0.20392 0.84345 0.25389
 H1887 H 0.17604 0.86159 0.21117
 H1888 H 0.15301 0.87501 0.17562
 H1889 H 0.13448 0.91604 0.17418
 H1890 H 0.13893 0.94390 0.20826
 H1891 H 0.17146 0.96112 0.29232
 H1892 H 0.19427 0.94762 0.32803
 H1893 H 0.21288 0.90664 0.32947
 H1894 H 0.20872 0.87884 0.29525
 C1895 C 0.68431 0.39163 0.75459
 C1896 C 0.68202 0.40521 0.77634
 C1897 C 0.67160 0.42895 0.77564
 C1898 C 0.66351 0.43893 0.75321
 C1899 C 0.66604 0.42548 0.73142
 C1900 C 0.67645 0.40174 0.73211
 C1901 C 0.67858 0.38855 0.71011
 C1902 C 0.67064 0.39853 0.68808
 C1903 C 0.66049 0.42175 0.68742
 C1904 C 0.65819 0.43517 0.70878
 C1905 C 0.66937 0.44214 0.79763
 C1906 C 0.67715 0.43214 0.81969
 C1907 C 0.68735 0.40893 0.82037
 C1908 C 0.68980 0.39553 0.79901
 C1909 C 0.65120 0.46233 0.75274
 C1910 C 0.63994 0.48120 0.75253
 C1911 C 0.69462 0.36724 0.75528
 C1912 C 0.70321 0.34700 0.75551
 H1913 H 0.68635 0.37041 0.70968
 H1914 H 0.67238 0.38817 0.67144
 H1915 H 0.65437 0.42944 0.67027
 H1916 H 0.65026 0.45319 0.70733
 H1917 H 0.66165 0.46030 0.79800
 H1918 H 0.67526 0.44246 0.83634
 H1919 H 0.69342 0.40127 0.83755
 H1920 H 0.69783 0.37755 0.80046
 C1921 C 0.68734 0.61293 0.74595
 C1922 C 0.66692 0.60806 0.73089
 C1923 C 0.65517 0.58500 0.73222
 C1924 C 0.66381 0.56703 0.74874
 C1925 C 0.68443 0.57177 0.76354
 C1926 C 0.69626 0.59479 0.76213
 C1927 C 0.71681 0.59914 0.77716
 C1928 C 0.72542 0.58126 0.79313
 C1929 C 0.71384 0.55876 0.79451
 C1930 C 0.69356 0.55397 0.77993
 C1931 C 0.63482 0.58052 0.71692
 C1932 C 0.62629 0.59835 0.70085
 C1933 C 0.63770 0.62094 0.69965
 C1934 C 0.65780 0.62584 0.71445
 C1935 C 0.65108 0.54394 0.75080
 C1936 C 0.63972 0.52516 0.75209
 C1937 C 0.69884 0.63675 0.74519
 C1938 C 0.70819 0.65663 0.74487
 H1939 H 0.72645 0.61635 0.77672
 H1940 H 0.74117 0.58490 0.80449
 H1941 H 0.72060 0.54494 0.80694
 H1942 H 0.68517 0.53618 0.78162
 H1943 H 0.62535 0.56322 0.71715
 H1944 H 0.61076 0.59460 0.68923
 H1945 H 0.63098 0.63473 0.68717
 H1946 H 0.66610 0.64366 0.71281
 C1947 C 0.18536 0.11035 0.24525
 C1948 C 0.17440 0.10031 0.22417
 C1949 C 0.16375 0.07671 0.22519
 C1950 C 0.16402 0.06339 0.24732
 C1951 C 0.17505 0.07337 0.26837
 C1952 C 0.18581 0.09691 0.26733
 C1953 C 0.19662 0.10659 0.28867
 C1954 C 0.19670 0.09341 0.31041
 C1955 C 0.18611 0.07041 0.31143
 C1956 C 0.17540 0.06039 0.29070
 C1957 C 0.15277 0.06708 0.20391
 C1958 C 0.15217 0.08045 0.18230
 C1959 C 0.16252 0.10357 0.18133
 C1960 C 0.17359 0.11345 0.20194
 C1961 C 0.15167 0.04009 0.24872
 C1962 C 0.14037 0.02128 0.24954
 C1963 C 0.19579 0.13464 0.24440
 C1964 C 0.20441 0.15484 0.24407
 H1965 H 0.20507 0.12442 0.28880
 H1966 H 0.20502 0.10110 0.32656
 H1967 H 0.18619 0.06025 0.32837
 H1968 H 0.16744 0.04241 0.29237
 H1969 H 0.14455 0.04914 0.20373
 H1970 H 0.14361 0.07284 0.16623
 H1971 H 0.16195 0.11391 0.16451
 H1972 H 0.18143 0.13148 0.20027
 C1973 C 0.31167 0.11199 0.75344
 C1974 C 0.31862 0.10219 0.73068
 C1975 C 0.32941 0.07866 0.72957
 C1976 C 0.33318 0.06508 0.75121
 C1977 C 0.32571 0.07461 0.77390
 C1978 C 0.31501 0.09819 0.77504
 C1979 C 0.30802 0.10749 0.79797
 C1980 C 0.31146 0.09386 0.81918
 C1981 C 0.32181 0.07074 0.81805
 C1982 C 0.32889 0.06114 0.79572
 C1983 C 0.33638 0.06930 0.70665
 C1984 C 0.33280 0.08282 0.68541
 C1985 C 0.32227 0.10585 0.68648
 C1986 C 0.31522 0.11552 0.70880
 C1987 C 0.34629 0.04213 0.75035
 C1988 C 0.35823 0.02369 0.74991
 C1989 C 0.30129 0.13632 0.75460
 C1990 C 0.29268 0.15654 0.75512
 H1991 H 0.29986 0.12537 0.79976
 H1992 H 0.30604 0.10126 0.83657
 H1993 H 0.32443 0.06021 0.83456
 H1994 H 0.33678 0.04304 0.79575
 H1995 H 0.34455 0.05143 0.70488
 H1996 H 0.33821 0.07537 0.66803
 H1997 H 0.31953 0.11629 0.66993
 H1998 H 0.30710 0.13351 0.70869
 C1999 C 0.81358 0.60855 0.25460
 C2000 C 0.83551 0.60425 0.26761
 C2001 C 0.84711 0.58112 0.26615
 C2002 C 0.83642 0.56224 0.25214
 C2003 C 0.81419 0.56635 0.23963
 C2004 C 0.80277 0.58960 0.24080
 C2005 C 0.78063 0.59333 0.22799
 C2006 C 0.77006 0.57462 0.21447
 C2007 C 0.78123 0.55188 0.21336
 C2008 C 0.80306 0.54769 0.22575
 C2009 C 0.86936 0.57747 0.27881
 C2010 C 0.87951 0.59590 0.29301
 C2011 C 0.86796 0.61838 0.29474
 C2012 C 0.84629 0.62267 0.28210
 C2013 C 0.84849 0.53874 0.25064
 C2014 C 0.85958 0.51976 0.25000
 C2015 C 0.80258 0.63264 0.25487
 C2016 C 0.79367 0.65274 0.25479
 H2017 H 0.77123 0.61068 0.22836
 H2018 H 0.75311 0.57777 0.20481
 H2019 H 0.77294 0.53740 0.20283
 H2020 H 0.81108 0.52971 0.22436
 H2021 H 0.87918 0.56040 0.27785
 H2022 H 0.89643 0.59270 0.30273
 H2023 H 0.87586 0.63261 0.30588
 H2024 H 0.83805 0.64050 0.28392
 C2025 C 0.88615 0.25353 0.18578
 C2026 C 0.90124 0.23316 0.19095
 C2027 C 0.92452 0.23125 0.17993
 C2028 C 0.93259 0.24973 0.16385
 C2029 C 0.91770 0.27034 0.15904
 C2030 C 0.89438 0.27222 0.17000
 C2031 C 0.87973 0.29285 0.16475
 C2032 C 0.88790 0.31116 0.14915
 C2033 C 0.91074 0.30938 0.13849
 C2034 C 0.92555 0.28926 0.14331
 C2035 C 0.93922 0.21066 0.18522
 C2036 C 0.93115 0.19246 0.20100
 C2037 C 0.90839 0.19432 0.21180
 C2038 C 0.89353 0.21438 0.20690
 C2039 C 0.95580 0.24724 0.15159
 C2040 C 0.97469 0.24572 0.14060
 C2041 C 0.86201 0.25492 0.19636
 C2042 C 0.84198 0.25536 0.20523
 H2043 H 0.86185 0.29507 0.17266
 H2044 H 0.87646 0.32683 0.14534
 H2045 H 0.91705 0.32369 0.12644
 H2046 H 0.94320 0.28875 0.13466
 H2047 H 0.95709 0.20844 0.17727
 H2048 H 0.94263 0.17684 0.20486
 H2049 H 0.90220 0.18013 0.22405
 H2050 H 0.87598 0.21499 0.21576
 C2051 C 0.39190 0.75496 0.68616
 C2052 C 0.40609 0.73346 0.68839
 C2053 C 0.42958 0.73240 0.67770
 C2054 C 0.43872 0.75283 0.66488
 C2055 C 0.42477 0.77452 0.66311
 C2056 C 0.40126 0.77558 0.67377
 C2057 C 0.38756 0.79737 0.67160
 C2058 C 0.39681 0.81755 0.65922
 C2059 C 0.41981 0.81652 0.64880
 C2060 C 0.43372 0.79532 0.65069
 C2061 C 0.44338 0.71069 0.67998
 C2062 C 0.43423 0.69057 0.69251
 C2063 C 0.41126 0.69160 0.70299
 C2064 C 0.39727 0.71274 0.70101
 C2065 C 0.46189 0.75123 0.65245
 C2066 C 0.48061 0.75037 0.64115
 C2067 C 0.36755 0.75566 0.69628
 C2068 C 0.34734 0.75583 0.70473
 H2069 H 0.36959 0.79906 0.67944
 H2070 H 0.38609 0.83407 0.65772
 H2071 H 0.42694 0.83224 0.63922
 H2072 H 0.45155 0.79546 0.64239
 H2073 H 0.46136 0.70904 0.67216
 H2074 H 0.44503 0.67410 0.69410
 H2075 H 0.40423 0.67592 0.71272
 H2076 H 0.37952 0.71265 0.70948
 C2077 C 0.38691 0.24895 0.81511
 C2078 C 0.40356 0.26744 0.80826
 C2079 C 0.42689 0.26862 0.81955
 C2080 C 0.43342 0.25128 0.83756
 C2081 C 0.41692 0.23255 0.84415
 C2082 C 0.39356 0.23142 0.83293
 C2083 C 0.37730 0.21266 0.83995
 C2084 C 0.38396 0.19545 0.85750
 C2085 C 0.40683 0.19650 0.86841
 C2086 C 0.42319 0.21478 0.86189
 C2087 C 0.44319 0.28732 0.81252
 C2088 C 0.43664 0.30438 0.79479
 C2089 C 0.41384 0.30324 0.78373
 C2090 C 0.39741 0.28503 0.79032
 C2091 C 0.45683 0.25291 0.84981
 C2092 C 0.47585 0.25360 0.86083
 C2093 C 0.36285 0.24816 0.80407
 C2094 C 0.34283 0.24777 0.79497
 H2095 H 0.35932 0.21106 0.83194
 H2096 H 0.37132 0.18120 0.86260
 H2097 H 0.41194 0.18304 0.88197
 H2098 H 0.44079 0.21477 0.87084
 H2099 H 0.46115 0.28892 0.82059
 H2100 H 0.44933 0.31857 0.78961
 H2101 H 0.40884 0.31653 0.76997
 H2102 H 0.37990 0.28488 0.78119
 C2103 C 0.88879 0.74583 0.31356
 C2104 C 0.89676 0.76792 0.32428
 C2105 C 0.92024 0.76924 0.33520
 C2106 C 0.93555 0.74846 0.33539
 C2107 C 0.92770 0.72645 0.32446
 C2108 C 0.90424 0.72513 0.31349
 C2109 C 0.89672 0.70291 0.30277
 C2110 C 0.91198 0.68257 0.30290
 C2111 C 0.93491 0.68385 0.31367
 C2112 C 0.94279 0.70550 0.32434
 C2113 C 0.92780 0.79146 0.34592
 C2114 C 0.91256 0.81179 0.34589
 C2115 C 0.88958 0.81050 0.33523
 C2116 C 0.88168 0.78888 0.32451
 C2117 C 0.95874 0.74932 0.34808
 C2118 C 0.97748 0.74976 0.35956
 C2119 C 0.86466 0.74445 0.30274
 C2120 C 0.84458 0.74378 0.29382
 H2121 H 0.87904 0.70102 0.29419
 H2122 H 0.90598 0.66574 0.29456
 H2123 H 0.94667 0.66799 0.31375
 H2124 H 0.96081 0.70563 0.33241
 H2125 H 0.94555 0.79338 0.35435
 H2126 H 0.91863 0.82863 0.35417
 H2127 H 0.87780 0.82634 0.33526
 H2128 H 0.86365 0.78879 0.31645
 C2129 C 0.10915 0.75345 0.31303
 C2130 C 0.10209 0.77247 0.32888
 C2131 C 0.07889 0.77173 0.34022
 C2132 C 0.06297 0.75191 0.33573
 C2133 C 0.06983 0.73313 0.31955
 C2134 C 0.09300 0.73391 0.30814
 C2135 C 0.09952 0.71486 0.29210
 C2136 C 0.08360 0.69561 0.28747
 C2137 C 0.06095 0.69485 0.29865
 C2138 C 0.05405 0.71335 0.31453
 C2139 C 0.07222 0.79095 0.35602
 C2140 C 0.08805 0.81029 0.36054
 C2141 C 0.11077 0.81097 0.34951
 C2142 C 0.11780 0.79233 0.33383
 C2143 C 0.03996 0.75049 0.34850
 C2144 C 0.02128 0.74973 0.35989
 C2145 C 0.13319 0.75370 0.30218
 C2146 C 0.15322 0.75361 0.29330
 H2147 H 0.11693 0.71464 0.28296
 H2148 H 0.08888 0.68119 0.27515
 H2149 H 0.04865 0.67986 0.29499
 H2150 H 0.03623 0.71200 0.32277
 H2151 H 0.05470 0.79129 0.36495
 H2152 H 0.08264 0.82484 0.37264
 H2153 H 0.12301 0.82603 0.35309
 H2154 H 0.13564 0.79370 0.32564
 C2155 C 0.60818 0.25567 0.81433
 C2156 C 0.59527 0.27762 0.81850
 C2157 C 0.57181 0.27685 0.82930
 C2158 C 0.56147 0.25414 0.83593
 C2159 C 0.57431 0.23219 0.83168
 C2160 C 0.59774 0.23295 0.82083
 C2161 C 0.61033 0.21076 0.81694
 C2162 C 0.60009 0.18849 0.82368
 C2163 C 0.57719 0.18777 0.83434
 C2164 C 0.56435 0.20930 0.83830
 C2165 C 0.55930 0.29903 0.83345
 C2166 C 0.56973 0.32135 0.82723
 C2167 C 0.59269 0.32211 0.81670
 C2168 C 0.60538 0.30055 0.81230
 C2169 C 0.53835 0.25348 0.84852
 C2170 C 0.51972 0.25312 0.86000
 C2171 C 0.63231 0.25642 0.80368
 C2172 C 0.65237 0.25669 0.79489
 H2173 H 0.62820 0.21037 0.80872
 H2174 H 0.60999 0.17170 0.82062
 H2175 H 0.56933 0.17043 0.83957
 H2176 H 0.54656 0.20780 0.84657
 H2177 H 0.54136 0.29937 0.84152
 H2178 H 0.55995 0.33814 0.83063
 H2179 H 0.60072 0.33950 0.81191
 H2180 H 0.62318 0.30207 0.80406
 C2181 C 0.61449 0.74839 0.68453
 C2182 C 0.60608 0.76995 0.67293
 C2183 C 0.58230 0.77070 0.66263
 C2184 C 0.56708 0.74991 0.66402
 C2185 C 0.57541 0.72841 0.67574
 C2186 C 0.59923 0.72761 0.68597
 C2187 C 0.60730 0.70581 0.69732
 C2188 C 0.59223 0.68540 0.69857
 C2189 C 0.56888 0.68623 0.68868
 C2190 C 0.56047 0.70744 0.67737
 C2191 C 0.57435 0.79237 0.65093
 C2192 C 0.58949 0.81270 0.64942
 C2193 C 0.61275 0.81198 0.65952
 C2194 C 0.62104 0.79091 0.67118
 C2195 C 0.54351 0.75022 0.65204
 C2196 C 0.52450 0.75041 0.64100
 C2197 C 0.63878 0.74766 0.69503
 C2198 C 0.65890 0.74733 0.70387
 H2199 H 0.62531 0.70429 0.70528
 H2200 H 0.59870 0.66886 0.70728
 H2201 H 0.55722 0.67034 0.68973
 H2202 H 0.54215 0.70723 0.66998
 H2203 H 0.55638 0.79386 0.64287
 H2204 H 0.58313 0.82910 0.64037
 H2205 H 0.62444 0.82783 0.65832
 H2206 H 0.63929 0.79123 0.67873
 C2207 C 0.10833 0.24492 0.18562
 C2208 C 0.09837 0.26705 0.17663
 C2209 C 0.07460 0.26731 0.16626
 C2210 C 0.06095 0.24545 0.16497
 C2211 C 0.07083 0.22336 0.17407
 C2212 C 0.09462 0.22308 0.18439
 C2213 C 0.10425 0.20071 0.19310
 C2214 C 0.09077 0.17923 0.19161
 C2215 C 0.06748 0.17951 0.18155
 C2216 C 0.05751 0.20128 0.17289
 C2217 C 0.06510 0.28959 0.15715
 C2218 C 0.07873 0.31099 0.15820
 C2219 C 0.10197 0.31075 0.16837
 C2220 C 0.11176 0.28910 0.17753
 C2221 C 0.03749 0.24543 0.15275
 C2222 C 0.01862 0.24539 0.14145
 C2223 C 0.13270 0.24466 0.19600
 C2224 C 0.15291 0.24473 0.20465
 H2225 H 0.12229 0.19957 0.20108
 H2226 H 0.09843 0.16226 0.19829
 H2227 H 0.05707 0.16278 0.18042
 H2228 H 0.03930 0.20061 0.16529
 H2229 H 0.04708 0.29072 0.14915
 H2230 H 0.07121 0.32784 0.15109
 H2231 H 0.11248 0.32743 0.16916
 H2232 H 0.12992 0.28985 0.18524
 C2233 C -0.06106 0.99459 0.85831
 C2234 C -0.05850 1.01632 0.84452
 C2235 C -0.06992 1.01839 0.82132
 C2236 C -0.08375 0.99871 0.81205
 C2237 C -0.08577 0.97674 0.82555
 C2238 C -0.07448 0.97472 0.84880
 C2239 C -0.07705 0.95272 0.86211
 C2240 C -0.09033 0.93323 0.85267
 C2241 C -0.10125 0.93514 0.82986
 C2242 C -0.09906 0.95660 0.81638
 C2243 C -0.06731 1.04034 0.80795
 C2244 C -0.05375 1.05970 0.81722
 C2245 C -0.04255 1.05769 0.83989
 C2246 C -0.04485 1.03630 0.85347
 C2247 C -0.09682 1.00128 0.78918
 C2248 C -0.10859 1.00265 0.77064
 C2249 C -0.05036 0.99295 0.88248
 C2250 C -0.04165 0.99206 0.90264
 H2251 H -0.06882 0.95033 0.87990
 H2252 H -0.09210 0.91653 0.86309
 H2253 H -0.11146 0.91992 0.82256
 H2254 H -0.10780 0.95715 0.79868
 H2255 H -0.07566 1.04272 0.79020
 H2256 H -0.05191 1.07636 0.80674
 H2257 H -0.03203 1.07279 0.84701
 H2258 H -0.03579 1.03561 0.87100
 C2259 C 0.43821 0.49272 0.36172
 C2260 C 0.42198 0.47413 0.35420
 C2261 C 0.41042 0.47569 0.33104
 C2262 C 0.41530 0.49576 0.31548
 C2263 C 0.43198 0.51403 0.32275
 C2264 C 0.44347 0.51252 0.34595
 C2265 C 0.45998 0.53111 0.35289
 C2266 C 0.46498 0.55060 0.33735
 C2267 C 0.45373 0.55205 0.31466
 C2268 C 0.43739 0.53403 0.30735
 C2269 C 0.39401 0.45704 0.32404
 C2270 C 0.38933 0.43730 0.33936
 C2271 C 0.40070 0.43575 0.36199
 C2272 C 0.41682 0.45393 0.36944
 C2273 C 0.40256 0.49785 0.29237
 C2274 C 0.39114 0.49899 0.27360
 C2275 C 0.44894 0.49196 0.38591
 C2276 C 0.45776 0.49198 0.40605
 H2277 H 0.46922 0.53077 0.37033
 H2278 H 0.47767 0.56464 0.34294
 H2279 H 0.45768 0.56723 0.30265
 H2280 H 0.42910 0.53593 0.28953
 H2281 H 0.38461 0.45752 0.30670
 H2282 H 0.37680 0.42316 0.33365
 H2283 H 0.39700 0.42039 0.37385
 H2284 H 0.42521 0.45193 0.38721
 C2285 C 0.56403 0.00537 0.36195
 C2286 C 0.57933 0.02431 0.35343
 C2287 C 0.59021 0.02251 0.33008
 C2288 C 0.58583 0.00172 0.31545
 C2289 C 0.57024 -0.01703 0.32379
 C2290 C 0.55928 -0.01520 0.34710
 C2291 C 0.54381 -0.03424 0.35508
 C2292 C 0.53931 -0.05448 0.34045
 C2293 C 0.55005 -0.05626 0.31767
 C2294 C 0.56536 -0.03780 0.30934
 C2295 C 0.60544 0.04170 0.32195
 C2296 C 0.60985 0.06201 0.33649
 C2297 C 0.59927 0.06372 0.35935
 C2298 C 0.58415 0.04515 0.36782
 C2299 C 0.59803 -0.00060 0.29220
 C2300 C 0.60900 -0.00187 0.27329
 C2301 C 0.55347 0.00676 0.38609
 C2302 C 0.54461 0.00726 0.40611
 H2303 H 0.53502 -0.03370 0.37265
 H2304 H 0.52742 -0.06887 0.34683
 H2305 H 0.54650 -0.07202 0.30637
 H2306 H 0.57327 -0.03997 0.29147
 H2307 H 0.61400 0.04127 0.30426
 H2308 H 0.62153 0.07652 0.32997
 H2309 H 0.60275 0.07954 0.37059
 H2310 H 0.57629 0.04732 0.38570
 C2311 C 0.06371 0.50284 0.86235
 C2312 C 0.06302 0.52388 0.84734
 C2313 C 0.07342 0.52318 0.82371
 C2314 C 0.08454 0.50150 0.81531
 C2315 C 0.08474 0.48030 0.83009
 C2316 C 0.07430 0.48097 0.85370
 C2317 C 0.07485 0.45959 0.86821
 C2318 C 0.08539 0.43816 0.85963
 C2319 C 0.09559 0.43751 0.83654
 C2320 C 0.09533 0.45828 0.82186
 C2321 C 0.07252 0.54441 0.80900
 C2322 C 0.06167 0.56575 0.81742
 C2323 C 0.05160 0.56647 0.84057
 C2324 C 0.05221 0.54583 0.85544
 C2325 C 0.09705 0.50137 0.79212
 C2326 C 0.10836 0.50145 0.77338
 C2327 C 0.05358 0.50361 0.88670
 C2328 C 0.04517 0.50373 0.90692
 H2329 H 0.06715 0.45917 0.88630
 H2330 H 0.08564 0.42197 0.87097
 H2331 H 0.10374 0.42082 0.82994
 H2332 H 0.10343 0.45685 0.80400
 H2333 H 0.08003 0.54471 0.79083
 H2334 H 0.06108 0.58181 0.80591
 H2335 H 0.04323 0.58311 0.84703
 H2336 H 0.04410 0.54725 0.87329
 C2337 C 0.06163 0.49719 0.64119
 C2338 C 0.06686 0.52036 0.65129
 C2339 C 0.07772 0.52202 0.67477
 C2340 C 0.08328 0.50051 0.68798
 C2341 C 0.07746 0.47736 0.67816
 C2342 C 0.06658 0.47570 0.65469
 C2343 C 0.06106 0.45236 0.64519
 C2344 C 0.06618 0.43125 0.65849
 C2345 C 0.07686 0.43287 0.68143
 C2346 C 0.08248 0.45561 0.69124
 C2347 C 0.08298 0.54534 0.68443
 C2348 C 0.07763 0.56647 0.67127
 C2349 C 0.06700 0.56487 0.64831
 C2350 C 0.06164 0.54214 0.63834
 C2351 C 0.09626 0.50205 0.71099
 C2352 C 0.10794 0.50265 0.72962
 C2353 C 0.05159 0.49555 0.61675
 C2354 C 0.04338 0.49467 0.59638
 H2355 H 0.05272 0.45018 0.62743
 H2356 H 0.06184 0.41355 0.65095
 H2357 H 0.08082 0.41643 0.69169
 H2358 H 0.09071 0.45594 0.70917
 H2359 H 0.09120 0.54750 0.70225
 H2360 H 0.08174 0.58416 0.67894
 H2361 H 0.06287 0.58133 0.63816
 H2362 H 0.05336 0.54185 0.62043
 C2363 C 0.56254 0.99758 0.14042
 C2364 C 0.56226 0.97636 0.15521
 C2365 C 0.57282 0.97694 0.17888
 C2366 C 0.58372 0.99866 0.18753
 C2367 C 0.58375 1.01994 0.17288
 C2368 C 0.57312 1.01941 0.14925
 C2369 C 0.57355 1.04088 0.13485
 C2370 C 0.58422 1.06223 0.14354
 C2371 C 0.59463 1.06274 0.16665
 C2372 C 0.59443 1.04190 0.18124
 C2373 C 0.57238 0.95551 0.19332
 C2374 C 0.56192 0.93408 0.18458
 C2375 C 0.55170 0.93348 0.16138
 C2376 C 0.55178 0.95434 0.14680
 C2377 C 0.59638 0.99869 0.21076
 C2378 C 0.60797 0.99855 0.22944
 C2379 C 0.55214 0.99694 0.11609
 C2380 C 0.54355 0.99672 0.09585
 H2381 H 0.56570 1.04139 0.11675
 H2382 H 0.58441 1.07847 0.13227
 H2383 H 0.60290 1.07936 0.17332
 H2384 H 0.60267 1.04323 0.19912
 H2385 H 0.58005 0.95510 0.21150
 H2386 H 0.56180 0.91785 0.19585
 H2387 H 0.54366 0.91677 0.15464
 H2388 H 0.54358 0.95299 0.12890
 C2389 C 0.43825 0.50526 0.14217
 C2390 C 0.41907 0.52152 0.14784
 C2391 C 0.40726 0.51978 0.17073
 C2392 C 0.41492 0.50200 0.18793
 C2393 C 0.43442 0.48609 0.18246
 C2394 C 0.44611 0.48769 0.15948
 C2395 C 0.46546 0.47147 0.15434
 C2396 C 0.47306 0.45417 0.17143
 C2397 C 0.46162 0.45262 0.19390
 C2398 C 0.44250 0.46835 0.19945
 C2399 C 0.38780 0.53592 0.17581
 C2400 C 0.38051 0.55355 0.15895
 C2401 C 0.39220 0.55538 0.13664
 C2402 C 0.41122 0.53954 0.13102
 C2403 C 0.40241 0.50000 0.21104
 C2404 C 0.39111 0.49904 0.22977
 C2405 C 0.44931 0.50607 0.11825
 C2406 C 0.45823 0.50639 0.09826
 H2407 H 0.47495 0.47200 0.13713
 H2408 H 0.48791 0.44192 0.16720
 H2409 H 0.46759 0.43915 0.20710
 H2410 H 0.43416 0.46646 0.21716
 H2411 H 0.37797 0.53506 0.19279
 H2412 H 0.36568 0.56582 0.16322
 H2413 H 0.38646 0.56908 0.12358
 H2414 H 0.41972 0.54164 0.11341
 C2415 C -0.06565 0.00528 0.63744
 C2416 C -0.06313 0.02536 0.65339
 C2417 C -0.07349 0.02432 0.67703
 C2418 C -0.08636 0.00324 0.68450
 C2419 C -0.08871 -0.01692 0.66864
 C2420 C -0.07834 -0.01590 0.64502
 C2421 C -0.08107 -0.03623 0.62941
 C2422 C -0.09369 -0.05696 0.63694
 C2423 C -0.10382 -0.05796 0.66006
 C2424 C -0.10141 -0.03823 0.67581
 C2425 C -0.07079 0.04462 0.69267
 C2426 C -0.05822 0.06537 0.68515
 C2427 C -0.04813 0.06642 0.66201
 C2428 C -0.05049 0.04669 0.64624
 C2429 C -0.09839 0.00279 0.70792
 C2430 C -0.10936 0.00261 0.72685
 C2431 C -0.05506 0.00625 0.61330
 C2432 C -0.04617 0.00651 0.59330
 H2433 H -0.07354 -0.03633 0.61125
 H2434 H -0.09561 -0.07233 0.62477
 H2435 H -0.11357 -0.07411 0.66584
 H2436 H -0.10952 -0.03991 0.69364
 H2437 H -0.07826 0.04463 0.71086
 H2438 H -0.05627 0.08072 0.69736
 H2439 H -0.03841 0.08260 0.65625
 H2440 H -0.04233 0.04835 0.62842
 C2441 C -0.13847 0.93416 0.99610
 C2442 C -0.14556 0.92131 1.01733
 C2443 C -0.16927 0.91101 1.01882
 C2444 C -0.18576 0.91366 0.99909
 C2445 C -0.17879 0.92672 0.97797
 C2446 C -0.15506 0.93698 0.97646
 C2447 C -0.14843 0.94977 0.95507
 C2448 C -0.16476 0.95232 0.93572
 C2449 C -0.18797 0.94230 0.93721
 C2450 C -0.19501 0.92963 0.95805
 C2451 C -0.17585 0.89800 1.04010
 C2452 C -0.15948 0.89528 1.05939
 C2453 C -0.13632 0.90540 1.05798
 C2454 C -0.12934 0.91829 1.03724
 C2455 C -0.20924 0.90155 0.99989
 C2456 C -0.22817 0.89040 1.00010
 C2457 C -0.11411 0.94437 0.99451
 C2458 C -0.09386 0.95285 0.99364
 H2459 H -0.13058 0.95788 0.95306
 H2460 H -0.15938 0.96213 0.91948
 H2461 H -0.20060 0.94438 0.92215
 H2462 H -0.21327 0.92222 0.95838
 H2463 H -0.19368 0.88983 1.04209
 H2464 H -0.16481 0.88526 1.07552
 H2465 H -0.12367 0.90324 1.07301
 H2466 H -0.11112 0.92580 1.03700
 C2467 C 0.36264 0.43643 0.49294
 C2468 C 0.34822 0.43911 0.51409
 C2469 C 0.32477 0.42820 0.51516
 C2470 C 0.31585 0.41474 0.49508
 C2471 C 0.32999 0.41261 0.47368
 C2472 C 0.35351 0.42339 0.47266
 C2473 C 0.36747 0.42071 0.45123
 C2474 C 0.35839 0.40783 0.43132
 C2475 C 0.33531 0.39745 0.43225
 C2476 C 0.32120 0.39974 0.45314
 C2477 C 0.31077 0.43093 0.53655
 C2478 C 0.31968 0.44411 0.55632
 C2479 C 0.34260 0.45481 0.55528
 C2480 C 0.35679 0.45239 0.53446
 C2481 C 0.29273 0.40205 0.49682
 C2482 C 0.27400 0.39064 0.49800
 C2483 C 0.38695 0.44683 0.49229
 C2484 C 0.40710 0.45556 0.49243
 H2485 H 0.38548 0.42854 0.44962
 H2486 H 0.36929 0.40597 0.41507
 H2487 H 0.32829 0.38757 0.41669
 H2488 H 0.30332 0.39144 0.45295
 H2489 H 0.29280 0.42299 0.53819
 H2490 H 0.30872 0.44605 0.57253
 H2491 H 0.34944 0.46504 0.57069
 H2492 H 0.37450 0.46106 0.53454
 C2493 C 0.36041 0.56233 0.00673
 C2494 C 0.34590 0.55916 -0.01443
 C2495 C 0.32253 0.57024 -0.01600
 C2496 C 0.31379 0.58437 0.00361
 C2497 C 0.32797 0.58693 0.02507
 C2498 C 0.35140 0.57596 0.02660
 C2499 C 0.36538 0.57905 0.04809
 C2500 C 0.35643 0.59252 0.06757
 C2501 C 0.33346 0.60313 0.06614
 C2502 C 0.31932 0.60043 0.04518
 C2503 C 0.30845 0.56701 -0.03740
 C2504 C 0.31719 0.55316 -0.05670
 C2505 C 0.34003 0.54229 -0.05517
 C2506 C 0.35431 0.54520 -0.03433
 C2507 C 0.29081 0.59731 0.00132
 C2508 C 0.27223 0.60897 -0.00015
 C2509 C 0.38477 0.55203 0.00779
 C2510 C 0.40505 0.54358 0.00822
 H2511 H 0.38332 0.57107 0.05009
 H2512 H 0.36736 0.59469 0.08389
 H2513 H 0.32654 0.61348 0.08137
 H2514 H 0.30152 0.60892 0.04499
 H2515 H 0.29053 0.57506 -0.03940
 H2516 H 0.30616 0.55083 -0.07292
 H2517 H 0.34674 0.53154 -0.07021
 H2518 H 0.37195 0.53637 -0.03400
 C2519 C -0.13985 0.06475 0.50549
 C2520 C -0.14243 0.08798 0.49440
 C2521 C -0.16577 0.09912 0.49284
 C2522 C -0.18640 0.08699 0.50243
 C2523 C -0.18386 0.06374 0.51342
 C2524 C -0.16050 0.05259 0.51498
 C2525 C -0.15839 0.02936 0.52612
 C2526 C -0.17878 0.01749 0.53544
 C2527 C -0.20162 0.02839 0.53389
 C2528 C -0.20424 0.05126 0.52303
 C2529 C -0.16790 0.12235 0.48166
 C2530 C -0.14755 0.13424 0.47231
 C2531 C -0.12471 0.12336 0.47387
 C2532 C -0.12207 0.10051 0.48476
 C2533 C -0.20996 0.09901 0.50175
 C2534 C -0.22890 0.11016 0.50139
 C2535 C -0.11600 0.05328 0.50664
 C2536 C -0.09605 0.04404 0.50690
 H2537 H -0.14100 0.02017 0.52776
 H2538 H -0.17684 -0.00027 0.54391
 H2539 H -0.21740 0.01909 0.54115
 H2540 H -0.22237 0.05901 0.52221
 H2541 H -0.18526 0.13157 0.47998
 H2542 H -0.14951 0.15198 0.46382
 H2543 H -0.10895 0.13268 0.46659
 H2544 H -0.10392 0.09283 0.48554
 C2545 C 0.63810 0.06539 0.49365
 C2546 C 0.65901 0.05107 0.49884
 C2547 C 0.68222 0.06240 0.50097
 C2548 C 0.68436 0.08794 0.49795
 C2549 C 0.66348 0.10224 0.49262
 C2550 C 0.64031 0.09091 0.49031
 C2551 C 0.61974 0.10556 0.48478
 C2552 C 0.62199 0.13069 0.48171
 C2553 C 0.64462 0.14180 0.48410
 C2554 C 0.66516 0.12785 0.48956
 C2555 C 0.70285 0.04776 0.50618
 C2556 C 0.70062 0.02261 0.50922
 C2557 C 0.67793 0.01153 0.50714
 C2558 C 0.65730 0.02550 0.50201
 C2559 C 0.70799 0.09966 0.49995
 C2560 C 0.72707 0.11049 0.50105
 C2561 C 0.61420 0.05406 0.49270
 C2562 C 0.59424 0.04490 0.49253
 H2563 H 0.60174 0.09776 0.48274
 H2564 H 0.60606 0.14162 0.47754
 H2565 H 0.64627 0.16134 0.48175
 H2566 H 0.68232 0.13738 0.49143
 H2567 H 0.72087 0.05557 0.50798
 H2568 H 0.71659 0.01167 0.51320
 H2569 H 0.67630 -0.00802 0.50951
 H2570 H 0.64005 0.01605 0.50052
 C2571 C 0.14042 0.56229 0.99230
 C2572 C 0.16118 0.54928 1.00061
 C2573 C 0.18410 0.56124 1.00231
 C2574 C 0.18610 0.58615 0.99576
 C2575 C 0.16540 0.59908 0.98716
 C2576 C 0.14254 0.58706 0.98524
 C2577 C 0.12218 0.60028 0.97633
 C2578 C 0.12433 0.62470 0.96954
 C2579 C 0.14662 0.63653 0.97164
 C2580 C 0.16695 0.62399 0.98043
 C2581 C 0.20458 0.54789 1.01068
 C2582 C 0.20248 0.52340 1.01721
 C2583 C 0.18007 0.51170 1.01558
 C2584 C 0.15960 0.52441 1.00739
 C2585 C 0.20939 0.59854 0.99765
 C2586 C 0.22832 0.60964 0.99871
 C2587 C 0.11671 0.55057 0.99205
 C2588 C 0.09687 0.54115 0.99253
 H2589 H 0.10443 0.59189 0.97440
 H2590 H 0.10860 0.63449 0.96265
 H2591 H 0.14819 0.65552 0.96644
 H2592 H 0.18383 0.63405 0.98192
 H2593 H 0.22239 0.55622 1.01227
 H2594 H 0.21834 0.51345 1.02358
 H2595 H 0.17854 0.49267 1.02066
 H2596 H 0.14257 0.51451 1.00636
 C2597 C 0.14122 0.43588 0.50534
 C2598 C 0.14444 0.41152 0.51336
 C2599 C 0.16754 0.40007 0.51107
 C2600 C 0.18741 0.41319 0.50117
 C2601 C 0.18431 0.43767 0.49353
 C2602 C 0.16113 0.44905 0.49557
 C2603 C 0.15843 0.47351 0.48769
 C2604 C 0.17809 0.48637 0.47810
 C2605 C 0.20076 0.47524 0.47613
 C2606 C 0.20394 0.45116 0.48373
 C2607 C 0.17016 0.37552 0.51877
 C2608 C 0.15068 0.36282 0.52888
 C2609 C 0.12816 0.37411 0.53135
 C2610 C 0.12494 0.39814 0.52363
 C2611 C 0.21100 0.40139 0.49922
 C2612 C 0.23003 0.39045 0.49836
 C2613 C 0.11724 0.44704 0.50634
 C2614 C 0.09716 0.45596 0.50669
 H2615 H 0.14117 0.48296 0.48891
 H2616 H 0.17571 0.50508 0.47218
 H2617 H 0.21596 0.48531 0.46867
 H2618 H 0.22190 0.44326 0.48183
 H2619 H 0.18724 0.36584 0.51706
 H2620 H 0.15308 0.34412 0.53481
 H2621 H 0.11308 0.36418 0.53921
 H2622 H 0.10706 0.40611 0.52588
 C2623 C 0.63967 0.93721 0.00481
 C2624 C 0.64166 0.91196 0.00996
 C2625 C 0.66457 0.90008 0.00790
 C2626 C 0.68548 0.91362 0.00116
 C2627 C 0.68355 0.93891 -0.00372
 C2628 C 0.66056 0.95074 -0.00194
 C2629 C 0.65906 0.97602 -0.00700
 C2630 C 0.67969 0.98925 -0.01361
 C2631 C 0.70216 0.97768 -0.01533
 C2632 C 0.70418 0.95279 -0.01046
 C2633 C 0.66598 0.87471 0.01262
 C2634 C 0.64547 0.86155 0.01966
 C2635 C 0.62313 0.87322 0.02198
 C2636 C 0.62112 0.89811 0.01712
 C2637 C 0.70892 0.90143 -0.00026
 C2638 C 0.72786 0.89029 -0.00082
 C2639 C 0.61597 0.94897 0.00566
 C2640 C 0.59605 0.95824 0.00593
 H2641 H 0.64199 0.98583 -0.00585
 H2642 H 0.67822 1.00859 -0.01741
 H2643 H 0.71812 0.98804 -0.02047
 H2644 H 0.72203 0.94457 -0.01207
 H2645 H 0.68289 0.86475 0.01086
 H2646 H 0.64694 0.84219 0.02333
 H2647 H 0.60725 0.86293 0.02749
 H2648 H 0.60332 0.90635 0.01912
 C2649 C 0.00020 0.85651 0.93597
 C2650 C -0.02118 0.84235 0.93306
 C2651 C -0.01976 0.81882 0.92239
 C2652 C 0.00303 0.80959 0.91471
 C2653 C 0.02446 0.82356 0.91796
 C2654 C 0.02305 0.84711 0.92861
 C2655 C 0.04470 0.86083 0.93149
 C2656 C 0.06710 0.85156 0.92402
 C2657 C 0.06846 0.82853 0.91360
 C2658 C 0.04745 0.81460 0.91057
 C2659 C -0.04141 0.80509 0.91944
 C2660 C -0.06382 0.81435 0.92685
 C2661 C -0.06520 0.83736 0.93731
 C2662 C -0.04419 0.85128 0.94043
 C2663 C 0.00415 0.78642 0.90211
 C2664 C 0.00455 0.76771 0.89068
 C2665 C -0.00132 0.88080 0.94628
 C2666 C -0.00229 0.90100 0.95484
 H2667 H 0.04458 0.87883 0.93951
 H2668 H 0.08348 0.86231 0.92634
 H2669 H 0.08590 0.82141 0.90784
 H2670 H 0.04944 0.79676 0.90246
 H2671 H -0.04127 0.78708 0.91144
 H2672 H -0.08020 0.80361 0.92447
 H2673 H -0.08265 0.84447 0.94304
 H2674 H -0.04619 0.86907 0.94865
 C2675 C 0.49375 0.36056 0.43865
 C2676 C 0.47242 0.35048 0.42817
 C2677 C 0.47336 0.32718 0.41695
 C2678 C 0.49568 0.31423 0.41609
 C2679 C 0.51688 0.32408 0.42700
 C2680 C 0.51591 0.34731 0.43835
 C2681 C 0.53740 0.35685 0.44905
 C2682 C 0.55919 0.34381 0.44852
 C2683 C 0.56013 0.32110 0.43738
 C2684 C 0.53927 0.31126 0.42671
 C2685 C 0.45178 0.31742 0.40665
 C2686 C 0.42995 0.33040 0.40724
 C2687 C 0.42907 0.35327 0.41806
 C2688 C 0.45000 0.36327 0.42847
 C2689 C 0.49707 0.29144 0.40284
 C2690 C 0.49790 0.27299 0.39100
 C2691 C 0.49312 0.38473 0.44933
 C2692 C 0.49324 0.40483 0.45813
 H2693 H 0.53760 0.37443 0.45794
 H2694 H 0.57545 0.35137 0.45680
 H2695 H 0.57710 0.31105 0.43702
 H2696 H 0.54088 0.29351 0.41831
 H2697 H 0.45153 0.29965 0.39815
 H2698 H 0.41364 0.32267 0.39924
 H2699 H 0.41208 0.36329 0.41845
 H2700 H 0.44841 0.38108 0.43676
 C2701 C 0.00469 0.35955 0.56467
 C2702 C -0.00001 0.33848 0.55056
 C2703 C -0.00247 0.31539 0.56215
 C2704 C -0.00025 0.31355 0.58776
 C2705 C 0.00459 0.33460 0.60187
 C2706 C 0.00718 0.35765 0.59027
 C2707 C 0.01217 0.37842 0.60474
 C2708 C 0.01443 0.37647 0.62995
 C2709 C 0.01173 0.35396 0.64131
 C2710 C 0.00689 0.33321 0.62753
 C2711 C -0.00717 0.29458 0.54771
 C2712 C -0.00937 0.29652 0.52249
 C2713 C -0.00697 0.31910 0.51114
 C2714 C -0.00235 0.33990 0.52493
 C2715 C -0.00237 0.29004 0.59974
 C2716 C -0.00340 0.27106 0.61083
 C2717 C 0.00611 0.38331 0.55305
 C2718 C 0.00674 0.40326 0.54381
 H2719 H 0.01441 0.39634 0.59675
 H2720 H 0.01822 0.39254 0.64072
 H2721 H 0.01334 0.35256 0.66091
 H2722 H 0.00489 0.31613 0.63724
 H2723 H -0.00920 0.27664 0.55573
 H2724 H -0.01297 0.28042 0.51170
 H2725 H -0.00869 0.32050 0.49155
 H2726 H -0.00058 0.35705 0.51528
 C2727 C 0.50392 0.86241 0.06418
 C2728 C 0.48434 0.84659 0.05840
 C2729 C 0.48269 0.82337 0.06986
 C2730 C 0.50065 0.81612 0.08696
 C2731 C 0.52049 0.83174 0.09241
 C2732 C 0.52208 0.85499 0.08104
 C2733 C 0.54192 0.87041 0.08696
 C2734 C 0.55972 0.86302 0.10361
 C2735 C 0.55823 0.84023 0.11465
 C2736 C 0.53889 0.82470 0.10920
 C2737 C 0.46289 0.80793 0.06394
 C2738 C 0.44521 0.81521 0.04713
 C2739 C 0.44681 0.83790 0.03590
 C2740 C 0.46611 0.85349 0.04140
 C2741 C 0.49852 0.79292 0.09953
 C2742 C 0.49752 0.77407 0.11081
 C2743 C 0.50506 0.88648 0.05318
 C2744 C 0.50560 0.90653 0.04417
 H2745 H 0.54390 0.88828 0.07879
 H2746 H 0.57477 0.87504 0.10792
 H2747 H 0.57216 0.83454 0.12750
 H2748 H 0.53859 0.80712 0.11820
 H2749 H 0.46090 0.79009 0.07220
 H2750 H 0.43019 0.80317 0.04280
 H2751 H 0.43304 0.84347 0.02285
 H2752 H 0.46657 0.87096 0.03218
 C2753 C 0.49593 0.64120 0.06538
 C2754 C 0.51850 0.65156 0.07247
 C2755 C 0.51911 0.67509 0.08323
 C2756 C 0.49715 0.68811 0.08676
 C2757 C 0.47459 0.67782 0.07957
 C2758 C 0.47397 0.65426 0.06890
 C2759 C 0.45117 0.64419 0.06216
 C2760 C 0.42960 0.65703 0.06591
 C2761 C 0.43021 0.68011 0.07630
 C2762 C 0.45240 0.69050 0.08304
 C2763 C 0.54184 0.68497 0.09046
 C2764 C 0.56337 0.67195 0.08719
 C2765 C 0.56280 0.64896 0.07662
 C2766 C 0.54069 0.63880 0.06928
 C2767 C 0.49764 0.71138 0.09918
 C2768 C 0.49790 0.73016 0.11049
 C2769 C 0.49534 0.61700 0.05477
 C2770 C 0.49521 0.59686 0.04605
 H2771 H 0.44977 0.62630 0.05401
 H2772 H 0.41231 0.64903 0.06073
 H2773 H 0.41341 0.69002 0.07918
 H2774 H 0.45195 0.70853 0.09098
 H2775 H 0.54322 0.70282 0.09869
 H2776 H 0.58059 0.67976 0.09289
 H2777 H 0.57959 0.63893 0.07409
 H2778 H 0.54119 0.62085 0.06118
 C2779 C -0.00744 0.13806 0.56587
 C2780 C 0.01536 0.14793 0.57297
 C2781 C 0.01645 0.17133 0.58399
 C2782 C -0.00523 0.18473 0.58776
 C2783 C -0.02804 0.17482 0.58080
 C2784 C -0.02915 0.15141 0.56982
 C2785 C -0.05216 0.14179 0.56319
 C2786 C -0.07349 0.15489 0.56740
 C2787 C -0.07241 0.17778 0.57816
 C2788 C -0.05000 0.18775 0.58477
 C2789 C 0.03940 0.18071 0.59121
 C2790 C 0.06068 0.16734 0.58767
 C2791 C 0.05963 0.14449 0.57683
 C2792 C 0.03729 0.13482 0.56951
 C2793 C -0.00419 0.20811 0.59997
 C2794 C -0.00355 0.22704 0.61104
 C2795 C -0.00846 0.11413 0.55466
 C2796 C -0.00864 0.09425 0.54535
 H2797 H -0.05392 0.12405 0.55478
 H2798 H -0.09095 0.14723 0.56228
 H2799 H -0.08903 0.18787 0.58143
 H2800 H -0.05009 0.20564 0.59302
 H2801 H 0.04116 0.19841 0.59969
 H2802 H 0.07806 0.17476 0.59337
 H2803 H 0.07621 0.13418 0.57409
 H2804 H 0.03743 0.11695 0.56121
 C2805 C 0.50430 0.13951 0.43451
 C2806 C 0.52574 0.15308 0.42996
 C2807 C 0.52405 0.17677 0.41946
 C2808 C 0.50094 0.18661 0.41334
 C2809 C 0.47950 0.17308 0.41796
 C2810 C 0.48117 0.14949 0.42864
 C2811 C 0.45945 0.13629 0.43305
 C2812 C 0.43677 0.14610 0.42702
 C2813 C 0.43516 0.16915 0.41652
 C2814 C 0.45621 0.18257 0.41200
 C2815 C 0.54572 0.19004 0.41516
 C2816 C 0.56844 0.18009 0.42081
 C2817 C 0.57010 0.15686 0.43089
 C2818 C 0.54905 0.14345 0.43554
 C2819 C 0.49931 0.21005 0.40110
 C2820 C 0.49831 0.22908 0.39008
 C2821 C 0.50588 0.11531 0.44522
 C2822 C 0.50642 0.09523 0.45422
 H2823 H 0.45975 0.11827 0.44114
 H2824 H 0.42036 0.13575 0.43050
 H2825 H 0.41750 0.17669 0.41185
 H2826 H 0.45402 0.20044 0.40384
 H2827 H 0.54536 0.20822 0.40742
 H2828 H 0.58483 0.19045 0.41727
 H2829 H 0.58780 0.14917 0.43513
 H2830 H 0.55126 0.12548 0.44347
 C2831 C 0.00937 0.63510 0.93665
 C2832 C 0.02621 0.65360 0.94298
 C2833 C 0.02476 0.67684 0.93151
 C2834 C 0.00656 0.68138 0.91371
 C2835 C -0.01017 0.66281 0.90726
 C2836 C -0.00887 0.63966 0.91887
 C2837 C -0.02594 0.62145 0.91224
 C2838 C -0.04371 0.62599 0.89458
 C2839 C -0.04485 0.64858 0.88308
 C2840 C -0.02828 0.66681 0.88923
 C2841 C 0.04180 0.69506 0.93810
 C2842 C 0.05977 0.69043 0.95553
 C2843 C 0.06120 0.66770 0.96674
 C2844 C 0.04466 0.64941 0.96060
 C2845 C 0.00545 0.70479 0.90136
 C2846 C 0.00462 0.72376 0.89021
 C2847 C 0.01057 0.61140 0.94842
 C2848 C 0.01075 0.59155 0.95788
 H2849 H -0.02574 0.60355 0.92058
 H2850 H -0.05660 0.61186 0.88973
 H2851 H -0.05861 0.65200 0.86929
 H2852 H -0.02975 0.68399 0.87964
 H2853 H 0.04140 0.71303 0.92988
 H2854 H 0.07266 0.70457 0.96037
 H2855 H 0.07518 0.66421 0.98028
 H2856 H 0.04651 0.63200 0.96979
 C2857 C 0.24574 0.68597 0.88843
 C2858 C 0.26634 0.68971 0.90362
 C2859 C 0.26759 0.67832 0.92688
 C2860 C 0.24826 0.66323 0.93480
 C2861 C 0.22750 0.65979 0.91977
 C2862 C 0.22619 0.67127 0.89656
 C2863 C 0.20524 0.66759 0.88189
 C2864 C 0.18611 0.65296 0.88992
 C2865 C 0.18744 0.64163 0.91257
 C2866 C 0.20787 0.64489 0.92735
 C2867 C 0.28839 0.68222 0.94169
 C2868 C 0.30743 0.69699 0.93376
 C2869 C 0.30623 0.70814 0.91102
 C2870 C 0.28597 0.70460 0.89605
 C2871 C 0.24992 0.65065 0.95804
 C2872 C 0.25070 0.63938 0.97692
 C2873 C 0.24500 0.69674 0.86425
 C2874 C 0.24493 0.70561 0.84413
 H2875 H 0.20339 0.67599 0.86413
 H2876 H 0.17021 0.65037 0.87849
 H2877 H 0.17257 0.63022 0.91871
 H2878 H 0.20812 0.63558 0.94473
 H2879 H 0.29014 0.67394 0.95953
 H2880 H 0.32321 0.69979 0.94532
 H2881 H 0.32107 0.71960 0.90494
 H2882 H 0.28587 0.71369 0.87853
 C2883 C 0.74375 0.18788 0.39153
 C2884 C 0.72264 0.17728 0.40181
 C2885 C 0.72396 0.16599 0.42510
 C2886 C 0.74637 0.16543 0.43800
 C2887 C 0.76734 0.17652 0.42799
 C2888 C 0.76603 0.18777 0.40467
 C2889 C 0.78730 0.19858 0.39494
 C2890 C 0.80921 0.19827 0.40789
 C2891 C 0.81047 0.18726 0.43069
 C2892 C 0.78983 0.17647 0.44071
 C2893 C 0.70268 0.15525 0.43488
 C2894 C 0.68070 0.15577 0.42210
 C2895 C 0.67939 0.16688 0.39934
 C2896 C 0.70006 0.17752 0.38921
 C2897 C 0.74804 0.15244 0.46099
 C2898 C 0.74896 0.14078 0.47961
 C2899 C 0.74275 0.19830 0.36722
 C2900 C 0.74229 0.20675 0.34694
 H2901 H 0.78723 0.20739 0.37729
 H2902 H 0.82529 0.20664 0.40018
 H2903 H 0.82752 0.18711 0.44067
 H2904 H 0.79169 0.16817 0.45853
 H2905 H 0.70281 0.14637 0.45249
 H2906 H 0.66460 0.14750 0.42988
 H2907 H 0.66227 0.16724 0.38947
 H2908 H 0.69815 0.18594 0.37146
 C2909 C 0.25554 0.31341 0.38895
 C2910 C 0.23281 0.31717 0.40046
 C2911 C 0.23196 0.32801 0.42390
 C2912 C 0.25384 0.33498 0.43570
 C2913 C 0.27660 0.33062 0.42450
 C2914 C 0.27746 0.31990 0.40100
 C2915 C 0.30040 0.31606 0.39000
 C2916 C 0.32190 0.32256 0.40192
 C2917 C 0.32107 0.33290 0.42497
 C2918 C 0.29874 0.33692 0.43622
 C2919 C 0.20904 0.33179 0.43496
 C2920 C 0.18754 0.32502 0.42320
 C2921 C 0.18836 0.31440 0.40029
 C2922 C 0.21067 0.31048 0.38896
 C2923 C 0.25285 0.34802 0.45860
 C2924 C 0.25223 0.35980 0.47707
 C2925 C 0.25625 0.30310 0.36466
 C2926 C 0.25623 0.29452 0.34449
 H2927 H 0.30196 0.30801 0.37211
 H2928 H 0.33930 0.31951 0.39325
 H2929 H 0.33782 0.33787 0.43419
 H2930 H 0.29902 0.34491 0.45420
 H2931 H 0.20748 0.33994 0.45280
 H2932 H 0.17017 0.32802 0.43193
 H2933 H 0.17160 0.30916 0.39122
 H2934 H 0.21034 0.30216 0.37113
 C2935 C 0.76008 0.81580 0.88856
 C2936 C 0.76431 0.84115 0.89108
 C2937 C 0.76195 0.85233 0.91425
 C2938 C 0.75528 0.83812 0.93475
 C2939 C 0.75138 0.81274 0.93231
 C2940 C 0.75381 0.80153 0.90914
 C2941 C 0.74979 0.77612 0.90714
 C2942 C 0.74355 0.76218 0.92743
 C2943 C 0.74116 0.77316 0.95007
 C2944 C 0.74501 0.79815 0.95259
 C2945 C 0.76628 0.87772 0.91631
 C2946 C 0.77264 0.89164 0.89605
 C2947 C 0.77483 0.88071 0.87338
 C2948 C 0.77079 0.85576 0.87082
 C2949 C 0.75255 0.84979 0.95825
 C2950 C 0.75084 0.86056 0.97728
 C2951 C 0.76129 0.80463 0.86466
 C2952 C 0.76164 0.79552 0.84472
 H2953 H 0.75147 0.76675 0.88992
 H2954 H 0.74055 0.74276 0.92558
 H2955 H 0.73631 0.76225 0.96578
 H2956 H 0.74296 0.80588 0.97057
 H2957 H 0.76478 0.88709 0.93354
 H2958 H 0.77581 0.91103 0.89794
 H2959 H 0.77964 0.89163 0.85768
 H2960 H 0.77280 0.84809 0.85282
 C2961 C 0.74331 0.81165 0.10876
 C2962 C 0.76544 0.81117 0.09560
 C2963 C 0.76695 0.82292 0.07254
 C2964 C 0.74633 0.83503 0.06276
 C2965 C 0.72413 0.83532 0.07581
 C2966 C 0.72259 0.82352 0.09883
 C2967 C 0.70022 0.82409 0.11154
 C2968 C 0.67997 0.83607 0.10181
 C2969 C 0.68151 0.84773 0.07937
 C2970 C 0.70329 0.84742 0.06645
 C2971 C 0.78933 0.82245 0.05986
 C2972 C 0.80964 0.81064 0.06965
 C2973 C 0.80815 0.79907 0.09215
 C2974 C 0.78636 0.79928 0.10505
 C2975 C 0.74815 0.84807 0.03979
 C2976 C 0.74929 0.85973 0.02117
 C2977 C 0.74214 0.80062 0.13281
 C2978 C 0.74177 0.79166 0.15288
 H2979 H 0.69815 0.81532 0.12908
 H2980 H 0.66301 0.83635 0.11178
 H2981 H 0.66576 0.85709 0.07193
 H2982 H 0.70364 0.85682 0.04913
 H2983 H 0.79137 0.83118 0.04229
 H2984 H 0.82662 0.81047 0.05971
 H2985 H 0.82398 0.78991 0.09966
 H2986 H 0.78612 0.79002 0.12248
 C2987 C 0.24291 0.31543 0.60963
 C2988 C 0.26239 0.30876 0.59417
 C2989 C 0.26476 0.31997 0.57092
 C2990 C 0.24768 0.33779 0.56330
 C2991 C 0.22800 0.34420 0.57861
 C2992 C 0.22553 0.33288 0.60178
 C2993 C 0.20563 0.33947 0.61668
 C2994 C 0.18867 0.35679 0.60892
 C2995 C 0.19118 0.36801 0.58635
 C2996 C 0.21063 0.36193 0.57135
 C2997 C 0.28440 0.31310 0.55583
 C2998 C 0.30125 0.29563 0.56349
 C2999 C 0.29896 0.28466 0.58621
 C3000 C 0.27980 0.29109 0.60146
 C3001 C 0.25040 0.34989 0.53993
 C3002 C 0.25183 0.36082 0.52090
 C3003 C 0.24128 0.30489 0.63387
 C3004 C 0.24066 0.29620 0.65404
 H3005 H 0.20294 0.33127 0.63441
 H3006 H 0.17353 0.36157 0.62052
 H3007 H 0.17801 0.38152 0.58042
 H3008 H 0.21193 0.37132 0.55407
 H3009 H 0.28693 0.32113 0.53800
 H3010 H 0.31617 0.29057 0.55171
 H3011 H 0.31210 0.27110 0.59207
 H3012 H 0.27877 0.28201 0.61894
 C3013 C 0.75341 0.18712 0.61141
 C3014 C 0.73056 0.18081 0.60110
 C3015 C 0.72949 0.16959 0.57784
 C3016 C 0.75126 0.16472 0.56505
 C3017 C 0.77408 0.17137 0.57517
 C3018 C 0.77516 0.18260 0.59844
 C3019 C 0.79818 0.18894 0.60827
 C3020 C 0.81954 0.18431 0.59547
 C3021 C 0.81849 0.17332 0.57272
 C3022 C 0.79607 0.16688 0.56259
 C3023 C 0.70647 0.16329 0.56796
 C3024 C 0.68510 0.16796 0.58071
 C3025 C 0.68613 0.17894 0.60346
 C3026 C 0.70854 0.18534 0.61362
 C3027 C 0.75023 0.15182 0.54205
 C3028 C 0.74953 0.14036 0.52338
 C3029 C 0.75444 0.19796 0.63548
 C3030 C 0.75465 0.20686 0.65550
 H3031 H 0.79991 0.19753 0.62590
 H3032 H 0.83700 0.18927 0.60326
 H3033 H 0.83513 0.16976 0.56285
 H3034 H 0.79618 0.15840 0.54483
 H3035 H 0.70472 0.15475 0.55031
 H3036 H 0.66765 0.16303 0.57289
 H3037 H 0.66948 0.18253 0.61330
 H3038 H 0.70838 0.19384 0.63137
 C3039 C 0.25496 0.68503 0.10956
 C3040 C 0.27673 0.67939 0.09706
 C3041 C 0.27558 0.66892 0.07344
 C3042 C 0.25266 0.66395 0.06257
 C3043 C 0.23090 0.66997 0.07489
 C3044 C 0.23205 0.68056 0.09844
 C3045 C 0.21002 0.68629 0.11045
 C3046 C 0.18754 0.68169 0.09951
 C3047 C 0.18643 0.67132 0.07648
 C3048 C 0.20781 0.66548 0.06423
 C3049 C 0.29758 0.66347 0.06127
 C3050 C 0.32008 0.66809 0.07218
 C3051 C 0.32121 0.67820 0.09533
 C3052 C 0.29984 0.68386 0.10770
 C3053 C 0.25146 0.65128 0.03946
 C3054 C 0.25071 0.63978 0.02080
 C3055 C 0.25600 0.69526 0.13389
 C3056 C 0.25619 0.70381 0.15408
 H3057 H 0.20992 0.69438 0.12839
 H3058 H 0.17088 0.68619 0.10896
 H3059 H 0.16892 0.66778 0.06806
 H3060 H 0.20601 0.65750 0.04632
 H3061 H 0.29763 0.65568 0.04320
 H3062 H 0.33672 0.66375 0.06263
 H3063 H 0.33873 0.68171 0.10375
 H3064 H 0.30163 0.69175 0.12565
 C3065 C 0.18688 0.61131 0.75852
 C3066 C 0.16562 0.60707 0.77239
 C3067 C 0.15375 0.58407 0.77119
 C3068 C 0.16317 0.56546 0.75606
 C3069 C 0.18479 0.56947 0.74272
 C3070 C 0.19669 0.59246 0.74396
 C3071 C 0.21823 0.59607 0.73036
 C3072 C 0.22776 0.57749 0.71600
 C3073 C 0.21612 0.55501 0.71482
 C3074 C 0.19486 0.55094 0.72797
 C3075 C 0.13252 0.58027 0.78524
 C3076 C 0.12329 0.59866 0.80002
 C3077 C 0.13487 0.62118 0.80114
 C3078 C 0.15578 0.62545 0.78750
 C3079 C 0.15020 0.54250 0.75383
 C3080 C 0.13863 0.52387 0.75234
 C3081 C 0.19818 0.63526 0.75862
 C3082 C 0.20738 0.65522 0.75815
 H3083 H 0.22797 0.61323 0.73075
 H3084 H 0.24428 0.58055 0.70576
 H3085 H 0.22360 0.54063 0.70365
 H3086 H 0.18648 0.53314 0.72652
 H3087 H 0.12291 0.56305 0.78504
 H3088 H 0.10711 0.59543 0.81072
 H3089 H 0.12765 0.63539 0.81268
 H3090 H 0.16417 0.64324 0.78902
 C3091 C 0.68425 0.10867 0.25531
 C3092 C 0.67648 0.09924 0.23257
 C3093 C 0.66581 0.07566 0.23134
 C3094 C 0.66301 0.06164 0.25282
 C3095 C 0.67100 0.07095 0.27551
 C3096 C 0.68159 0.09457 0.27677
 C3097 C 0.68914 0.10362 0.29970
 C3098 C 0.68628 0.08973 0.32079
 C3099 C 0.67600 0.06660 0.31954
 C3100 C 0.66845 0.05721 0.29721
 C3101 C 0.65796 0.06670 0.20846
 C3102 C 0.66054 0.08067 0.18740
 C3103 C 0.67098 0.10372 0.18859
 C3104 C 0.67891 0.11299 0.21085
 C3105 C 0.65047 0.03839 0.25180
 C3106 C 0.63902 0.01965 0.25121
 C3107 C 0.69479 0.13293 0.25655
 C3108 C 0.70350 0.15311 0.25708
 H3109 H 0.69725 0.12150 0.30158
 H3110 H 0.69210 0.09695 0.33819
 H3111 H 0.67382 0.05587 0.33597
 H3112 H 0.66063 0.03909 0.29715
 H3113 H 0.64980 0.04883 0.20659
 H3114 H 0.65440 0.07355 0.17006
 H3115 H 0.67295 0.11450 0.17217
 H3116 H 0.68691 0.13103 0.21084
 C3117 C 0.81332 0.11277 0.74157
 C3118 C 0.83664 0.10967 0.73113
 C3119 C 0.84853 0.08668 0.73274
 C3120 C 0.83703 0.06695 0.74481
 C3121 C 0.81348 0.06989 0.75472
 C3122 C 0.80157 0.09287 0.75308
 C3123 C 0.77803 0.09540 0.76318
 C3124 C 0.76659 0.07577 0.77454
 C3125 C 0.77825 0.05330 0.77614
 C3126 C 0.80144 0.05029 0.76639
 C3127 C 0.87187 0.08403 0.72219
 C3128 C 0.88312 0.10353 0.71041
 C3129 C 0.87150 0.12602 0.70888
 C3130 C 0.84853 0.12916 0.71910
 C3131 C 0.84963 0.04378 0.74712
 C3132 C 0.86092 0.02495 0.74847
 C3133 C 0.80183 0.13663 0.74126
 C3134 C 0.79250 0.15653 0.74162
 H3135 H 0.76820 0.11250 0.76233
 H3136 H 0.74856 0.07800 0.78212
 H3137 H 0.76928 0.03810 0.78497
 H3138 H 0.80978 0.03246 0.76805
 H3139 H 0.88165 0.06690 0.72289
 H3140 H 0.90094 0.10117 0.70243
 H3141 H 0.88032 0.14111 0.69973
 H3142 H 0.84020 0.14698 0.71739
 C3143 C 0.31393 0.60912 0.24167
 C3144 C 0.33742 0.60572 0.23174
 C3145 C 0.34934 0.58283 0.23435
 C3146 C 0.33748 0.56334 0.24647
 C3147 C 0.31369 0.56652 0.25573
 C3148 C 0.30190 0.58950 0.25339
 C3149 C 0.27817 0.59231 0.26296
 C3150 C 0.26642 0.57293 0.27444
 C3151 C 0.27795 0.55044 0.27668
 C3152 C 0.30133 0.54717 0.26747
 C3153 C 0.37306 0.58005 0.22474
 C3154 C 0.38446 0.59913 0.21245
 C3155 C 0.37268 0.62142 0.20966
 C3156 C 0.34948 0.62482 0.21926
 C3157 C 0.34986 0.54009 0.24925
 C3158 C 0.36102 0.52120 0.25090
 C3159 C 0.30263 0.63306 0.24084
 C3160 C 0.29346 0.65304 0.24086
 H3161 H 0.26843 0.60942 0.26158
 H3162 H 0.24826 0.57538 0.28162
 H3163 H 0.26874 0.53545 0.28560
 H3164 H 0.30956 0.52934 0.26963
 H3165 H 0.38307 0.56314 0.22663
 H3166 H 0.40253 0.59660 0.20508
 H3167 H 0.38159 0.63620 0.20009
 H3168 H 0.34107 0.64250 0.21667
 C3169 C 0.31388 0.38915 0.25902
 C3170 C 0.30058 0.40991 0.25118
 C3171 C 0.31233 0.43295 0.24950
 C3172 C 0.33731 0.43505 0.25560
 C3173 C 0.35050 0.41438 0.26392
 C3174 C 0.33871 0.39138 0.26575
 C3175 C 0.35223 0.37100 0.27418
 C3176 C 0.37671 0.37327 0.28059
 C3177 C 0.38828 0.39574 0.27873
 C3178 C 0.37544 0.41609 0.27041
 C3179 C 0.29871 0.45345 0.24160
 C3180 C 0.27414 0.45124 0.23550
 C3181 C 0.26264 0.42871 0.23709
 C3182 C 0.27562 0.40821 0.24482
 C3183 C 0.34961 0.45836 0.25340
 C3184 C 0.36082 0.47721 0.25210
 C3185 C 0.30237 0.36532 0.25918
 C3186 C 0.29307 0.34542 0.25868
 H3187 H 0.34404 0.35314 0.27596
 H3188 H 0.38679 0.35750 0.28695
 H3189 H 0.40731 0.39741 0.28369
 H3190 H 0.38532 0.43310 0.26909
 H3191 H 0.30688 0.47135 0.24008
 H3192 H 0.26397 0.46711 0.22950
 H3193 H 0.24354 0.42709 0.23233
 H3194 H 0.26587 0.39109 0.24584
 C3195 C 0.81794 0.89084 0.75510
 C3196 C 0.82304 0.90401 0.77666
 C3197 C 0.83284 0.92797 0.77513
 C3198 C 0.83771 0.93848 0.75208
 C3199 C 0.83248 0.92537 0.73054
 C3200 C 0.82255 0.90149 0.73204
 C3201 C 0.81763 0.88868 0.71022
 C3202 C 0.82244 0.89916 0.68760
 C3203 C 0.83217 0.92251 0.68615
 C3204 C 0.83715 0.93557 0.70731
 C3205 C 0.83776 0.94082 0.79692
 C3206 C 0.83340 0.93021 0.81956
 C3207 C 0.82402 0.90671 0.82105
 C3208 C 0.81876 0.89371 0.79990
 C3209 C 0.84968 0.96200 0.75058
 C3210 C 0.86076 0.98094 0.74955
 C3211 C 0.80789 0.86638 0.75653
 C3212 C 0.79932 0.84615 0.75702
 H3213 H 0.81008 0.87045 0.71039
 H3214 H 0.81860 0.88908 0.67110
 H3215 H 0.83588 0.93058 0.66854
 H3216 H 0.84461 0.95372 0.70525
 H3217 H 0.84501 0.95917 0.79669
 H3218 H 0.83741 0.94024 0.83604
 H3219 H 0.82082 0.89849 0.83868
 H3220 H 0.81141 0.87551 0.80198
 C3221 C 0.68466 0.88744 0.24144
 C3222 C 0.69326 0.90450 0.25879
 C3223 C 0.68180 0.92765 0.26086
 C3224 C 0.66186 0.93362 0.24554
 C3225 C 0.65360 0.91677 0.22782
 C3226 C 0.66498 0.89358 0.22583
 C3227 C 0.65624 0.87693 0.20819
 C3228 C 0.63686 0.88307 0.19285
 C3229 C 0.62580 0.90580 0.19470
 C3230 C 0.63398 0.92252 0.21196
 C3231 C 0.69058 0.94434 0.27844
 C3232 C 0.71018 0.93833 0.29354
 C3233 C 0.72141 0.91571 0.29151
 C3234 C 0.71313 0.89891 0.27438
 C3235 C 0.64941 0.95680 0.24831
 C3236 C 0.63830 0.97568 0.25009
 C3237 C 0.69557 0.86334 0.24026
 C3238 C 0.70455 0.84328 0.24000
 H3239 H 0.66430 0.85905 0.20601
 H3240 H 0.63043 0.87013 0.17943
 H3241 H 0.61084 0.91051 0.18267
 H3242 H 0.62483 0.93998 0.21265
 H3243 H 0.68245 0.96218 0.28067
 H3244 H 0.71668 0.95131 0.30688
 H3245 H 0.73664 0.91113 0.30328
 H3246 H 0.72249 0.88156 0.27348
 C3247 C 0.18273 0.39075 0.74122
 C3248 C 0.19735 0.41194 0.74332
 C3249 C 0.18618 0.43521 0.74577
 C3250 C 0.16048 0.43713 0.74614
 C3251 C 0.14585 0.41600 0.74364
 C3252 C 0.15701 0.39275 0.74112
 C3253 C 0.14200 0.37189 0.73864
 C3254 C 0.11670 0.37394 0.73866
 C3255 C 0.10578 0.39667 0.74114
 C3256 C 0.12009 0.41750 0.74366
 C3257 C 0.20114 0.45612 0.74784
 C3258 C 0.22644 0.45411 0.74751
 C3259 C 0.23738 0.43136 0.74515
 C3260 C 0.22309 0.41045 0.74308
 C3261 C 0.14890 0.46078 0.74872
 C3262 C 0.13814 0.47987 0.75039
 C3263 C 0.19406 0.36683 0.74018
 C3264 C 0.20328 0.34687 0.74007
 H3265 H 0.14964 0.35381 0.73660
 H3266 H 0.10551 0.35780 0.73680
 H3267 H 0.08612 0.39818 0.74115
 H3268 H 0.11072 0.43474 0.74564
 H3269 H 0.19345 0.47420 0.74971
 H3270 H 0.23762 0.47029 0.74910
 H3271 H 0.25704 0.42990 0.74489
 H3272 H 0.23242 0.39317 0.74121
 C3273 C 0.11334 0.74295 0.81277
 C3274 C 0.10571 0.76461 0.82449
 C3275 C 0.08244 0.76565 0.83564
 C3276 C 0.06697 0.74501 0.83504
 C3277 C 0.07448 0.72344 0.82311
 C3278 C 0.09775 0.72240 0.81193
 C3279 C 0.10494 0.70060 0.80025
 C3280 C 0.08957 0.68039 0.79962
 C3281 C 0.06682 0.68139 0.81058
 C3282 C 0.05926 0.70262 0.82222
 C3283 C 0.07525 0.78744 0.84737
 C3284 C 0.09064 0.80762 0.84812
 C3285 C 0.11341 0.80662 0.83723
 C3286 C 0.12095 0.78543 0.82551
 C3287 C 0.04403 0.74556 0.84797
 C3288 C 0.02555 0.74593 0.85971
 C3289 C 0.13727 0.74188 0.80174
 C3290 C 0.15722 0.74169 0.79271
 H3291 H 0.12248 0.69894 0.79149
 H3292 H 0.09533 0.66387 0.79056
 H3293 H 0.05495 0.66563 0.81005
 H3294 H 0.04139 0.70254 0.83045
 H3295 H 0.05767 0.78914 0.85604
 H3296 H 0.08485 0.82413 0.85719
 H3297 H 0.12531 0.82234 0.83786
 H3298 H 0.13883 0.78556 0.81731
 C3299 C 0.60762 0.24576 0.31348
 C3300 C 0.59300 0.26685 0.31030
 C3301 C 0.56983 0.26826 0.32163
 C3302 C 0.56140 0.24856 0.33598
 C3303 C 0.57577 0.22724 0.33872
 C3304 C 0.59902 0.22589 0.32754
 C3305 C 0.61323 0.20457 0.33086
 C3306 C 0.60468 0.18508 0.34475
 C3307 C 0.58186 0.18632 0.35552
 C3308 C 0.56749 0.20710 0.35260
 C3309 C 0.55562 0.28959 0.31839
 C3310 C 0.56406 0.30898 0.30431
 C3311 C 0.58671 0.30760 0.29319
 C3312 C 0.60110 0.28683 0.29610
 C3313 C 0.53844 0.25048 0.34879
 C3314 C 0.51982 0.25145 0.36028
 C3315 C 0.63168 0.24472 0.30268
 C3316 C 0.65173 0.24423 0.29387
 H3317 H 0.63107 0.20271 0.32276
 H3318 H 0.61579 0.16891 0.34711
 H3319 H 0.57523 0.17109 0.36619
 H3320 H 0.54982 0.20714 0.36123
 H3321 H 0.53786 0.29148 0.32664
 H3322 H 0.55295 0.32516 0.30199
 H3323 H 0.59318 0.32271 0.28226
 H3324 H 0.61858 0.28661 0.28709
 C3325 C 0.61044 0.75567 0.18306
 C3326 C 0.59582 0.77695 0.18237
 C3327 C 0.57191 0.77592 0.17234
 C3328 C 0.56287 0.75365 0.16295
 C3329 C 0.57753 0.73241 0.16350
 C3330 C 0.60139 0.73341 0.17360
 C3331 C 0.61576 0.71195 0.17383
 C3332 C 0.60686 0.69018 0.16425
 C3333 C 0.58353 0.68922 0.15433
 C3334 C 0.56894 0.71002 0.15395
 C3335 C 0.55763 0.79742 0.17180
 C3336 C 0.56676 0.81936 0.18077
 C3337 C 0.59017 0.82039 0.19049
 C3338 C 0.60460 0.79947 0.19137
 C3339 C 0.53911 0.75287 0.15133
 C3340 C 0.51996 0.75226 0.14055
 C3341 C 0.63469 0.75649 0.19366
 C3342 C 0.65477 0.75648 0.20262
 H3343 H 0.63404 0.71177 0.18129
 H3344 H 0.61813 0.67396 0.16451
 H3345 H 0.57670 0.67228 0.14689
 H3346 H 0.55090 0.70833 0.14611
 H3347 H 0.53929 0.79751 0.16447
 H3348 H 0.55562 0.83566 0.18012
 H3349 H 0.59719 0.83748 0.19741
 H3350 H 0.62270 0.80117 0.19909
 C3351 C 0.10855 0.25546 0.68453
 C3352 C 0.09340 0.27634 0.68329
 C3353 C 0.06966 0.27453 0.67300
 C3354 C 0.06126 0.25187 0.66393
 C3355 C 0.07639 0.23099 0.66518
 C3356 C 0.10009 0.23277 0.67554
 C3357 C 0.11493 0.21164 0.67648
 C3358 C 0.10663 0.18945 0.66733
 C3359 C 0.08348 0.18774 0.65711
 C3360 C 0.06844 0.20820 0.65603
 C3361 C 0.05488 0.29568 0.67182
 C3362 C 0.06337 0.31801 0.68046
 C3363 C 0.08661 0.31978 0.69047
 C3364 C 0.10151 0.29924 0.69197
 C3365 C 0.03772 0.25037 0.65194
 C3366 C 0.01870 0.24942 0.64092
 C3367 C 0.13281 0.25721 0.69501
 C3368 C 0.15296 0.25801 0.70381
 H3369 H 0.13310 0.21205 0.68421
 H3370 H 0.11824 0.17350 0.66815
 H3371 H 0.07712 0.17048 0.64999
 H3372 H 0.05055 0.20594 0.64797
 H3373 H 0.03666 0.29519 0.66424
 H3374 H 0.05187 0.33402 0.67938
 H3375 H 0.09313 0.33718 0.69708
 H3376 H 0.11945 0.30153 0.69991
 C3377 C 0.88664 0.24336 0.68731
 C3378 C 0.89540 0.22327 0.67380
 C3379 C 0.91870 0.22450 0.66269
 C3380 C 0.93307 0.24582 0.66518
 C3381 C 0.92451 0.26572 0.67904
 C3382 C 0.90122 0.26450 0.69016
 C3383 C 0.89297 0.28472 0.70381
 C3384 C 0.90732 0.30553 0.70638
 C3385 C 0.93009 0.30671 0.69549
 C3386 C 0.93868 0.28709 0.68196
 C3387 C 0.92701 0.20425 0.64911
 C3388 C 0.91270 0.18342 0.64654
 C3389 C 0.88992 0.18222 0.65743
 C3390 C 0.88129 0.20185 0.67094
 C3391 C 0.95612 0.24761 0.65253
 C3392 C 0.97479 0.24870 0.64114
 C3393 C 0.86246 0.24261 0.69785
 C3394 C 0.84239 0.24266 0.70663
 H3395 H 0.87540 0.28468 0.71263
 H3396 H 0.90072 0.32083 0.71688
 H3397 H 0.94116 0.32292 0.69754
 H3398 H 0.95653 0.28884 0.67386
 H3399 H 0.94464 0.20426 0.64040
 H3400 H 0.91934 0.16812 0.63606
 H3401 H 0.87888 0.16598 0.65541
 H3402 H 0.86348 0.20005 0.67910
 C3403 C 0.38817 0.74203 0.18718
 C3404 C 0.40261 0.76303 0.19140
 C3405 C 0.42585 0.76518 0.18030
 C3406 C 0.43450 0.74632 0.16510
 C3407 C 0.42033 0.72504 0.16139
 C3408 C 0.39707 0.72291 0.17244
 C3409 C 0.38314 0.70158 0.16829
 C3410 C 0.39195 0.68287 0.15364
 C3411 C 0.41472 0.68492 0.14286
 C3412 C 0.42883 0.70572 0.14663
 C3413 C 0.43988 0.78640 0.18460
 C3414 C 0.43122 0.80498 0.19949
 C3415 C 0.40850 0.80289 0.21036
 C3416 C 0.39428 0.78220 0.20642
 C3417 C 0.45743 0.74917 0.15242
 C3418 C 0.47602 0.75099 0.14098
 C3419 C 0.36394 0.74050 0.19752
 C3420 C 0.34378 0.74003 0.20610
 H3421 H 0.36535 0.69913 0.17633
 H3422 H 0.38107 0.66668 0.15068
 H3423 H 0.42151 0.67032 0.13154
 H3424 H 0.44647 0.70641 0.13796
 H3425 H 0.45769 0.78882 0.17658
 H3426 H 0.44220 0.82108 0.20261
 H3427 H 0.40185 0.81737 0.22191
 H3428 H 0.37675 0.78142 0.21531
 C3429 C 0.38771 0.25776 0.31347
 C3430 C 0.39867 0.27908 0.32301
 C3431 C 0.42206 0.27768 0.33417
 C3432 C 0.43419 0.25492 0.33596
 C3433 C 0.42332 0.23365 0.32625
 C3434 C 0.40004 0.23508 0.31491
 C3435 C 0.38950 0.21353 0.30538
 C3436 C 0.40160 0.19123 0.30709
 C3437 C 0.42434 0.18983 0.31825
 C3438 C 0.43517 0.21074 0.32775
 C3439 C 0.43271 0.29924 0.34350
 C3440 C 0.42049 0.32149 0.34212
 C3441 C 0.39752 0.32282 0.33142
 C3442 C 0.38669 0.30193 0.32184
 C3443 C 0.45725 0.25320 0.34885
 C3444 C 0.47598 0.25204 0.36034
 C3445 C 0.36360 0.25895 0.30254
 C3446 C 0.34355 0.25914 0.29351
 H3447 H 0.37184 0.21366 0.29655
 H3448 H 0.39327 0.17493 0.29972
 H3449 H 0.43366 0.17246 0.31955
 H3450 H 0.45290 0.20875 0.33624
 H3451 H 0.45058 0.29914 0.35191
 H3452 H 0.42886 0.33778 0.34945
 H3453 H 0.38806 0.34013 0.33050
 H3454 H 0.36884 0.30389 0.31359
 C3455 C 0.89230 0.75448 0.81629
 C3456 C 0.91161 0.76982 0.80877
 C3457 C 0.93503 0.76739 0.81970
 C3458 C 0.93894 0.74970 0.83816
 C3459 C 0.91960 0.73442 0.84573
 C3460 C 0.89626 0.73671 0.83467
 C3461 C 0.87727 0.72106 0.84242
 C3462 C 0.88123 0.70373 0.86063
 C3463 C 0.90402 0.70164 0.87159
 C3464 C 0.92301 0.71681 0.86435
 C3465 C 0.95405 0.78293 0.81192
 C3466 C 0.95005 0.80040 0.79384
 C3467 C 0.92716 0.80278 0.78315
 C3468 C 0.90809 0.78771 0.79045
 C3469 C 0.96253 0.74782 0.85007
 C3470 C 0.98167 0.74660 0.86086
 C3471 C 0.86843 0.75668 0.80501
 C3472 C 0.84849 0.75767 0.79577
 H3473 H 0.85920 0.72204 0.83452
 H3474 H 0.86651 0.69191 0.86632
 H3475 H 0.90699 0.68822 0.88581
 H3476 H 0.94033 0.71465 0.87354
 H3477 H 0.97218 0.78175 0.81969
 H3478 H 0.96480 0.81215 0.78810
 H3479 H 0.92415 0.81639 0.76913
 H3480 H 0.89060 0.79025 0.78162
   
