data_POSCAR
  _audit_creation_date              2014-09-24
  _audit_creation_method            'ToBaCCo'
  _symmetry_space_group_name_H-M    'P1'
  _symmetry_Int_Tables_number       1
  _symmetry_cell_setting            triclinic
  loop_
  _symmetry_equiv_pos_as_xyz
 x,y,z
_cell_length_a 53.7205
_cell_length_b 53.6886
_cell_length_c 53.8054
_cell_angle_alpha 90.005000
_cell_angle_beta 89.992300
_cell_angle_gamma 89.984600
loop_
  _atom_site_label
  _atom_site_type_symbol
  _atom_site_fract_x
  _atom_site_fract_y
  _atom_site_fract_z
O1 O 0.22921 1.02468 0.02048
 O2 O 0.23597 0.97641 -0.02771
 O3 O 0.22871 0.97555 0.02002
 O4 O 0.23588 1.02440 -0.02731
 O5 O 0.27652 1.02448 -0.02121
 O6 O 0.26928 0.97592 0.02660
 O7 O 0.27644 0.97544 -0.02111
 O8 O 0.26983 1.02412 0.02668
 Cu9 Cu 0.22833 1.00028 -0.00408
 Cu10 Cu 0.27711 0.99998 0.00326
 C11 C 0.24841 1.03278 0.03166
 C12 C 0.25734 0.96751 -0.03262
 C13 C 0.24778 0.96729 0.03128
 C14 C 0.25738 1.03277 -0.03237
 O15 O 0.74431 0.52560 0.51911
 O16 O 0.74340 0.48075 0.46716
 O17 O 0.74126 0.47691 0.51508
 O18 O 0.74462 0.52901 0.47101
 O19 O 0.78567 0.52697 0.47144
 O20 O 0.78231 0.47514 0.51639
 O21 O 0.78448 0.47912 0.46797
 O22 O 0.78534 0.52329 0.52018
 Cu23 Cu 0.73928 0.50328 0.49311
 Cu24 Cu 0.78857 0.50099 0.49419
 C25 C 0.76504 0.53205 0.52849
 C26 C 0.76385 0.47249 0.45856
 C27 C 0.76114 0.46706 0.52318
 C28 C 0.76563 0.53661 0.46336
 O29 O 0.72112 0.97744 1.01576
 O30 O 0.72777 1.02612 0.96798
 O31 O 0.72759 0.97764 0.96825
 O32 O 0.72183 1.02652 1.01599
 O33 O 0.76243 1.02562 1.02168
 O34 O 0.76844 0.97784 0.97303
 O35 O 0.76853 1.02580 0.97316
 O36 O 0.76179 0.97722 1.02103
 Cu37 Cu 0.72048 1.00206 0.99159
 Cu38 Cu 0.76936 1.00168 0.99787
 C39 C 0.74037 0.96868 1.02638
 C40 C 0.74929 1.03396 0.96211
 C41 C 0.74904 0.96956 0.96239
 C42 C 0.74115 1.03442 1.02714
 O43 O 0.23843 0.47535 0.52062
 O44 O 0.24311 0.52728 0.47671
 O45 O 0.24113 0.47913 0.47304
 O46 O 0.24218 0.52364 0.52511
 O47 O 0.28317 0.52130 0.52627
 O48 O 0.28218 0.47685 0.47431
 O49 O 0.28411 0.52471 0.47740
 O50 O 0.27946 0.47326 0.52268
 Cu51 Cu 0.23710 0.50175 0.49881
 Cu52 Cu 0.28637 0.49889 0.50039
 C53 C 0.25808 0.46540 0.52907
 C54 C 0.26425 0.53446 0.46901
 C55 C 0.26153 0.47045 0.46478
 C56 C 0.26286 0.52988 0.53476
 O57 O 1.02536 0.26413 0.02279
 O58 O 0.97924 0.27085 -0.02724
 O59 O 0.97747 0.27121 0.02163
 O60 O 1.02698 0.26358 -0.02498
 O61 O 1.02015 0.22301 -0.02553
 O62 O 0.97111 0.23058 0.02160
 O63 O 0.97225 0.23042 -0.02628
 O64 O 1.01897 0.22350 0.02329
 Cu65 Cu 1.00274 0.27156 -0.00196
 Cu66 Cu 0.99509 0.22277 -0.00172
 C67 C 1.03013 0.24269 0.03149
 C68 C 0.96778 0.25180 -0.03538
 C69 C 0.96591 0.25219 0.02965
 C70 C 1.03197 0.24200 -0.03323
 O71 O 0.52508 0.76874 0.52269
 O72 O 0.47587 0.77610 0.47578
 O73 O 0.47703 0.77477 0.52452
 O74 O 0.52371 0.76957 0.47472
 O75 O 0.51787 0.72888 0.47353
 O76 O 0.47126 0.73407 0.52335
 O77 O 0.46998 0.73539 0.47549
 O78 O 0.51931 0.72802 0.52241
 Cu79 Cu 0.50089 0.77641 0.49954
 Cu80 Cu 0.49419 0.72746 0.49864
 C81 C 0.53057 0.74716 0.53059
 C82 C 0.46457 0.75701 0.46759
 C83 C 0.46614 0.75530 0.53240
 C84 C 0.52865 0.74836 0.46552
 O85 O 0.02583 0.76516 -0.02493
 O86 O -0.02332 0.77239 0.02233
 O87 O 0.02471 0.76577 0.02278
 O88 O -0.02218 0.77249 -0.02674
 O89 O -0.02916 0.73207 -0.02574
 O90 O 0.01859 0.72511 0.02295
 O91 O -0.02939 0.73172 0.02218
 O92 O 0.01882 0.72473 -0.02591
 Cu93 Cu 0.00168 0.77307 -0.00168
 Cu94 Cu -0.00579 0.72433 -0.00166
 C95 C 0.03081 0.74368 -0.03353
 C96 C -0.03462 0.75324 0.03045
 C97 C 0.02979 0.74427 0.03118
 C98 C -0.03382 0.75347 -0.03472
 O99 O 0.51928 0.22968 0.47425
 O100 O 0.47184 0.23704 0.52294
 O101 O 0.47153 0.23720 0.47510
 O102 O 0.51991 0.23036 0.52317
 O103 O 0.52641 0.27097 0.52239
 O104 O 0.47816 0.27779 0.47432
 O105 O 0.47831 0.27766 0.52321
 O106 O 0.52598 0.27027 0.47445
 Cu107 Cu 0.49516 0.22946 0.49893
 Cu108 Cu 0.50273 0.27828 0.49860
 C109 C 0.53064 0.24869 0.46596
 C110 C 0.46688 0.25858 0.53130
 C111 C 0.46664 0.25868 0.46648
 C112 C 0.53144 0.24952 0.53095
 O113 O 1.02108 0.02140 0.22899
 O114 O 0.97210 -0.02600 0.23382
 O115 O 0.97235 0.02261 0.23156
 O116 O 1.02033 -0.02668 0.23205
 O117 O 1.02360 -0.02256 0.27276
 O118 O 0.97258 0.02282 0.27259
 O119 O 0.97530 -0.02540 0.27464
 O120 O 1.02117 0.02545 0.26982
 Cu121 Cu 0.99618 -0.00228 0.22747
 Cu122 Cu 0.99829 0.00039 0.27656
 C123 C 1.02958 0.03147 0.24857
 C124 C 0.96561 -0.03428 0.25498
 C125 C 0.96385 0.03063 0.25212
 C126 C 1.03053 -0.03257 0.25253
 O127 O 0.52644 0.52335 0.74275
 O128 O 0.47802 0.47489 0.74301
 O129 O 0.47807 0.52367 0.74385
 O130 O 0.52644 0.47506 0.74125
 O131 O 0.52698 0.47332 0.78228
 O132 O 0.47885 0.52214 0.78484
 O133 O 0.47949 0.47352 0.78399
 O134 O 0.52812 0.52167 0.78370
 Cu135 Cu 0.50203 0.49944 0.73861
 Cu136 Cu 0.50342 0.49788 0.78787
 C137 C 0.53586 0.53045 0.76319
 C138 C 0.47088 0.46556 0.76352
 C139 C 0.47012 0.53112 0.76479
 C140 C 0.53472 0.46570 0.76130
 O141 O 0.97712 1.02328 0.74519
 O142 O 1.02339 0.97246 0.74604
 O143 O 0.97515 0.97482 0.74805
 O144 O 1.02565 1.02048 0.74244
 O145 O 1.02542 1.02574 0.78315
 O146 O 0.97951 0.97481 0.78885
 O147 O 1.02776 0.97762 0.78653
 O148 O 0.97673 1.02326 0.78613
 Cu149 Cu 1.00003 0.99757 0.74131
 Cu150 Cu 1.00248 1.00073 0.79029
 C151 C 0.96843 1.03151 0.76560
 C152 C 1.03396 0.96690 0.76643
 C153 C 0.96920 0.96646 0.76930
 C154 C 1.03405 1.03106 0.76179
 O155 O 0.47388 0.52484 0.25638
 O156 O 0.52135 0.47556 0.25419
 O157 O 0.47289 0.47631 0.25543
 O158 O 0.52202 0.52421 0.25566
 O159 O 0.52323 0.52266 0.29664
 O160 O 0.47423 0.47456 0.29641
 O161 O 0.52193 0.47398 0.29518
 O162 O 0.47399 0.52314 0.29738
 Cu163 Cu 0.49749 0.50037 0.25133
 Cu164 Cu 0.49847 0.49873 0.30056
 C165 C 0.46570 0.53229 0.27722
 C166 C 0.52948 0.46607 0.27424
 C167 C 0.46543 0.46701 0.27585
 C168 C 0.53104 0.53159 0.27620
 O169 O 0.25123 0.18515 0.21785
 O170 O 0.27457 0.17853 0.25436
 O171 O 0.18300 0.21577 0.25146
 O172 O 0.17021 0.25001 0.26904
 O173 O 0.21705 0.25013 0.18397
 O174 O 0.25252 0.27586 0.17824
 O175 O 0.24225 0.28551 0.31427
 O176 O 0.21385 0.25260 0.31967
 O177 O 0.30854 0.25336 0.28939
 O178 O 0.31921 0.22424 0.25510
 O179 O 0.27999 0.31529 0.25103
 O180 O 0.24648 0.32286 0.22306
 O181 O 0.24600 0.31499 0.28413
 O182 O 0.21737 0.32067 0.24649
 O183 O 0.31029 0.28611 0.25564
 O184 O 0.32046 0.25022 0.22819
 O185 O 0.27666 0.25232 0.31717
 O186 O 0.24235 0.22381 0.32288
 O187 O 0.25098 0.21419 0.18703
 O188 O 0.27998 0.24842 0.18173
 O189 O 0.18509 0.24762 0.21158
 O190 O 0.17768 0.27979 0.24498
 O191 O 0.21272 0.18559 0.24986
 O192 O 0.24561 0.17960 0.28006
 Zr193 Zr 0.24641 0.20578 0.25072
 O194 O 0.26800 0.22782 0.27485
 Zr195 Zr 0.20253 0.24920 0.24663
 O196 O 0.22184 0.27278 0.27123
 Zr197 Zr 0.24917 0.24839 0.20618
 O198 O 0.27038 0.27264 0.22854
 Zr199 Zr 0.24450 0.25168 0.29499
 O200 O 0.22259 0.22783 0.27274
 Zr201 Zr 0.29109 0.25187 0.25438
 O202 O 0.27190 0.22732 0.23013
 Zr203 Zr 0.24679 0.29472 0.25060
 O204 O 0.22554 0.27286 0.22559
 O205 O 0.22470 0.22553 0.22557
 O206 O 0.26877 0.27519 0.27587
 C207 C 0.25225 0.19159 0.19487
 C208 C 0.18998 0.19290 0.25160
 C209 C 0.19378 0.24921 0.18938
 C210 C 0.24363 0.30820 0.30691
 C211 C 0.29991 0.25303 0.31166
 C212 C 0.30282 0.30876 0.25355
 H213 H 0.27782 0.21684 0.28584
 H214 H 0.28112 0.28290 0.21771
 H215 H 0.21481 0.21436 0.21477
 H216 H 0.20982 0.28292 0.28079
 H217 H 0.20153 0.24043 0.31335
 H218 H 0.17529 0.25651 0.28547
 H219 H 0.31746 0.26324 0.21555
 H220 H 0.29226 0.23657 0.18868
 H221 H 0.25533 0.21121 0.31953
 H222 H 0.23256 0.18526 0.29177
 H223 H 0.25846 0.31787 0.21001
 H224 H 0.24101 0.28950 0.18287
 H225 H 0.28926 0.18502 0.24533
 H226 H 0.31529 0.21251 0.26872
 H227 H 0.18241 0.28986 0.23031
 H228 H 0.20652 0.31942 0.26130
 O229 O 0.74604 0.81615 0.20861
 O230 O 0.71956 0.82572 0.24316
 O231 O 0.81010 0.78469 0.24373
 O232 O 0.81955 0.75229 0.26721
 O233 O 0.77570 0.74795 0.17965
 O234 O 0.73968 0.72286 0.17487
 O235 O 0.74327 0.72188 0.31133
 O236 O 0.77493 0.75246 0.31561
 O237 O 0.68142 0.75481 0.28242
 O238 O 0.67253 0.78237 0.24731
 O239 O 0.70777 0.69012 0.25208
 O240 O 0.74062 0.67930 0.22217
 O241 O 0.74390 0.69050 0.28294
 O242 O 0.76961 0.68065 0.24555
 O243 O 0.67891 0.72094 0.24907
 O244 O 0.67200 0.75677 0.22024
 O245 O 0.71259 0.75739 0.31091
 O246 O 0.74876 0.78400 0.31573
 O247 O 0.74250 0.78532 0.17971
 O248 O 0.71301 0.75130 0.17555
 O249 O 0.80702 0.75005 0.20807
 O250 O 0.81263 0.72049 0.24330
 O251 O 0.78140 0.81587 0.24162
 O252 O 0.74799 0.82538 0.27042
 Zr253 Zr 0.74688 0.79739 0.24280
 O254 O 0.72359 0.77806 0.26758
 Zr255 Zr 0.78876 0.75189 0.24270
 O256 O 0.76762 0.73081 0.26812
 Zr257 Zr 0.74306 0.75214 0.20091
 O258 O 0.72014 0.73042 0.22419
 Zr259 Zr 0.74529 0.75441 0.28982
 O260 O 0.76906 0.77580 0.26686
 Zr261 Zr 0.69990 0.75399 0.24788
 O262 O 0.72089 0.77595 0.22274
 Zr263 Zr 0.74209 0.70874 0.24831
 O264 O 0.76505 0.72799 0.22264
 O265 O 0.76808 0.77491 0.21961
 O266 O 0.72038 0.73100 0.27146
 C267 C 0.74428 0.80836 0.18611
 C268 C 0.80386 0.80775 0.24260
 C269 C 0.79885 0.74804 0.18569
 C270 C 0.74354 0.69874 0.30536
 C271 C 0.68950 0.75665 0.30483
 C272 C 0.68518 0.69796 0.25128
 H273 H 0.71409 0.79020 0.27760
 H274 H 0.70908 0.72004 0.21380
 H275 H 0.77878 0.78474 0.20830
 H276 H 0.77884 0.72073 0.27865
 H277 H 0.78831 0.76338 0.30916
 H278 H 0.81419 0.74424 0.28284
 H279 H 0.67405 0.74252 0.20877
 H280 H 0.70124 0.76447 0.18084
 H281 H 0.73638 0.79693 0.31146
 H282 H 0.76069 0.82014 0.28269
 H283 H 0.72719 0.68308 0.21019
 H284 H 0.74955 0.70880 0.18155
 H285 H 0.70560 0.81962 0.23281
 H286 H 0.67803 0.79575 0.25869
 H287 H 0.80729 0.70934 0.22965
 H288 H 0.78228 0.68392 0.25849
 O289 O 0.75191 0.18634 0.77727
 O290 O 0.72619 0.18002 0.74125
 O291 O 0.81866 0.21590 0.74379
 O292 O 0.83070 0.24905 0.72315
 O293 O 0.78529 0.24854 0.80991
 O294 O 0.75237 0.27839 0.81512
 O295 O 0.75788 0.28624 0.67927
 O296 O 0.78649 0.25304 0.67368
 O297 O 0.69232 0.25298 0.70587
 O298 O 0.68135 0.22650 0.73958
 O299 O 0.72221 0.31644 0.73992
 O300 O 0.75384 0.32455 0.76973
 O301 O 0.75902 0.31570 0.70959
 O302 O 0.78471 0.32126 0.74861
 O303 O 0.69159 0.28721 0.74000
 O304 O 0.68252 0.25041 0.76798
 O305 O 0.72366 0.25445 0.67751
 O306 O 0.75747 0.22416 0.67139
 O307 O 0.74812 0.21630 0.80697
 O308 O 0.72319 0.25279 0.81331
 O309 O 0.81697 0.24981 0.78181
 O310 O 0.82493 0.27974 0.74726
 O311 O 0.78839 0.18621 0.74457
 O312 O 0.75534 0.18019 0.71485
 Zr313 Zr 0.75499 0.20672 0.74388
 O314 O 0.73323 0.22868 0.71979
 Zr315 Zr 0.79926 0.24980 0.74678
 O316 O 0.77974 0.27334 0.72222
 Zr317 Zr 0.75306 0.25004 0.78785
 O318 O 0.73171 0.27410 0.76553
 Zr319 Zr 0.75634 0.25241 0.69896
 O320 O 0.77851 0.22846 0.72117
 Zr321 Zr 0.71057 0.25291 0.74045
 O322 O 0.72992 0.22859 0.76465
 Zr323 Zr 0.75525 0.29571 0.74296
 O324 O 0.77675 0.27396 0.76786
 O325 O 0.77706 0.22672 0.76842
 O326 O 0.73256 0.27610 0.71838
 C327 C 0.74861 0.19348 0.79984
 C328 C 0.81126 0.19315 0.74374
 C329 C 0.80848 0.24905 0.80414
 C330 C 0.75936 0.30893 0.68672
 C331 C 0.70051 0.25404 0.68346
 C332 C 0.69924 0.30987 0.73954
 H333 H 0.72314 0.21766 0.70908
 H334 H 0.72107 0.28457 0.77628
 H335 H 0.78682 0.21549 0.77929
 H336 H 0.79181 0.28323 0.71247
 H337 H 0.79865 0.24047 0.67956
 H338 H 0.82547 0.25623 0.70706
 H339 H 0.68407 0.26508 0.77900
 H340 H 0.70985 0.24176 0.80700
 H341 H 0.74350 0.21254 0.67432
 H342 H 0.76758 0.18620 0.70246
 H343 H 0.74360 0.31853 0.78375
 H344 H 0.76510 0.29078 0.81020
 H345 H 0.71267 0.18579 0.75235
 H346 H 0.68698 0.21233 0.72928
 H347 H 0.82052 0.29048 0.76156
 H348 H 0.79675 0.31906 0.73487
 O349 O 0.24763 0.81366 0.78384
 O350 O 0.27274 0.82095 0.74737
 O351 O 0.18359 0.77711 0.75408
 O352 O 0.17478 0.74223 0.73359
 O353 O 0.22160 0.74967 0.81958
 O354 O 0.25789 0.72368 0.82480
 O355 O 0.24581 0.71035 0.69002
 O356 O 0.21629 0.74316 0.68445
 O357 O 0.31151 0.75055 0.71265
 O358 O 0.32057 0.77950 0.74568
 O359 O 0.28936 0.68582 0.75264
 O360 O 0.25717 0.67631 0.78200
 O361 O 0.25393 0.68201 0.72038
 O362 O 0.22785 0.67462 0.75898
 O363 O 0.31668 0.71757 0.74648
 O364 O 0.32365 0.75508 0.77392
 O365 O 0.27970 0.74317 0.68580
 O366 O 0.24842 0.77051 0.67846
 O367 O 0.25471 0.78563 0.81479
 O368 O 0.28422 0.75254 0.82103
 O369 O 0.18958 0.74437 0.79236
 O370 O 0.18312 0.71343 0.75899
 O371 O 0.21114 0.80925 0.75254
 O372 O 0.24393 0.81822 0.72196
 Zr373 Zr 0.24631 0.79205 0.75128
 O374 O 0.26908 0.77124 0.72715
 Zr375 Zr 0.20629 0.74526 0.75692
 O376 O 0.22721 0.72252 0.73286
 Zr377 Zr 0.25338 0.75082 0.79669
 O378 O 0.27628 0.72799 0.77449
 Zr379 Zr 0.24768 0.74474 0.70817
 O380 O 0.22413 0.76769 0.72996
 Zr381 Zr 0.29457 0.74999 0.74784
 O382 O 0.27383 0.77331 0.77199
 Zr383 Zr 0.25435 0.70329 0.75347
 O384 O 0.23153 0.72405 0.77813
 O385 O 0.22684 0.77098 0.77711
 O386 O 0.27418 0.72400 0.72744
 C387 C 0.25136 0.80792 0.80672
 C388 C 0.18891 0.80043 0.75299
 C389 C 0.19843 0.74667 0.81444
 C390 C 0.24936 0.68801 0.69767
 C391 C 0.30283 0.74664 0.69076
 C392 C 0.31143 0.69438 0.74929
 H393 H 0.27744 0.78260 0.71532
 H394 H 0.28815 0.71903 0.78530
 H395 H 0.21621 0.78144 0.78793
 H396 H 0.21576 0.71121 0.72395
 H397 H 0.20535 0.75733 0.68894
 H398 H 0.18089 0.73657 0.71721
 H399 H 0.32342 0.74081 0.78555
 H400 H 0.29620 0.76432 0.81348
 H401 H 0.24070 0.78594 0.68475
 H402 H 0.22879 0.81423 0.71226
 H403 H 0.26856 0.68305 0.79478
 H404 H 0.24606 0.71007 0.82096
 H405 H 0.28667 0.81694 0.75873
 H406 H 0.31363 0.79217 0.73428
 H407 H 0.18987 0.70274 0.77237
 H408 H 0.21571 0.67539 0.74517
 O409 O 0.25017 0.31734 0.71915
 O410 O 0.22595 0.32364 0.75645
 O411 O 0.31609 0.28276 0.74754
 O412 O 0.32597 0.24833 0.76868
 O413 O 0.27836 0.25177 0.68275
 O414 O 0.24130 0.22745 0.67767
 O415 O 0.25356 0.21346 0.81250
 O416 O 0.28520 0.24441 0.81763
 O417 O 0.18962 0.25085 0.79058
 O418 O 0.18025 0.28226 0.75721
 O419 O 0.21267 0.18858 0.75072
 O420 O 0.24549 0.18090 0.71919
 O421 O 0.24789 0.18547 0.78128
 O422 O 0.27383 0.17827 0.74350
 O423 O 0.18468 0.21978 0.75641
 O424 O 0.17569 0.25645 0.73032
 O425 O 0.22217 0.24905 0.81756
 O426 O 0.25796 0.27444 0.82356
 O427 O 0.24591 0.28924 0.68777
 O428 O 0.21573 0.25669 0.68174
 O429 O 0.31101 0.25093 0.70973
 O430 O 0.31825 0.21881 0.74160
 O431 O 0.28742 0.31398 0.74924
 O432 O 0.25658 0.32108 0.78114
 Zr433 Zr 0.25306 0.29554 0.75143
 O434 O 0.23113 0.27417 0.77574
 Zr435 Zr 0.29444 0.25007 0.74517
 O436 O 0.27423 0.22658 0.76924
 Zr437 Zr 0.24674 0.25438 0.70581
 O438 O 0.22443 0.23108 0.72808
 Zr439 Zr 0.25366 0.24820 0.79441
 O440 O 0.27623 0.27176 0.77233
 Zr441 Zr 0.20604 0.25250 0.75511
 O442 O 0.22593 0.27627 0.73079
 Zr443 Zr 0.24727 0.20696 0.74868
 O444 O 0.26951 0.22829 0.72411
 O445 O 0.27284 0.27513 0.72528
 O446 O 0.22740 0.22711 0.77514
 C447 C 0.24780 0.31164 0.69607
 C448 C 0.30988 0.30589 0.74819
 C449 C 0.30177 0.25099 0.68769
 C450 C 0.25058 0.19118 0.80430
 C451 C 0.19881 0.24978 0.81260
 C452 C 0.19045 0.19667 0.75438
 H453 H 0.22239 0.28540 0.78738
 H454 H 0.21264 0.22185 0.71742
 H455 H 0.28302 0.28579 0.71425
 H456 H 0.28572 0.21529 0.77812
 H457 H 0.29765 0.25672 0.81182
 H458 H 0.32152 0.23782 0.78310
 H459 H 0.17773 0.24400 0.71693
 H460 H 0.20381 0.26833 0.68963
 H461 H 0.24734 0.28899 0.81978
 H462 H 0.26982 0.31452 0.79214
 H463 H 0.23109 0.18537 0.70864
 H464 H 0.25240 0.21330 0.68172
 H465 H 0.21166 0.31910 0.74576
 H466 H 0.18487 0.29279 0.77157
 H467 H 0.31118 0.20813 0.72836
 H468 H 0.28687 0.18022 0.75633
 O469 O 0.75498 0.68801 0.70801
 O470 O 0.78054 0.67941 0.74321
 O471 O 0.68723 0.71394 0.74095
 O472 O 0.67557 0.74376 0.76737
 O473 O 0.71994 0.75483 0.68032
 O474 O 0.75472 0.78220 0.67679
 O475 O 0.74582 0.77980 0.81302
 O476 O 0.71810 0.74590 0.81583
 O477 O 0.81246 0.75182 0.78494
 O478 O 0.82359 0.72575 0.74857
 O479 O 0.78187 0.81560 0.75214
 O480 O 0.74727 0.82412 0.72457
 O481 O 0.74840 0.81168 0.78528
 O482 O 0.71964 0.82042 0.74927
 O483 O 0.81305 0.78703 0.75373
 O484 O 0.82371 0.75357 0.72348
 O485 O 0.78092 0.74708 0.81277
 O486 O 0.74716 0.71748 0.81630
 O487 O 0.75450 0.71988 0.68009
 O488 O 0.78284 0.75495 0.67743
 O489 O 0.68830 0.75010 0.70804
 O490 O 0.67966 0.77734 0.74387
 O491 O 0.71802 0.68475 0.74182
 O492 O 0.75223 0.67690 0.76960
 Zr493 Zr 0.75126 0.70571 0.74282
 O494 O 0.77241 0.72624 0.76862
 Zr495 Zr 0.70607 0.74804 0.74284
 O496 O 0.72504 0.77007 0.76912
 Zr497 Zr 0.75235 0.75219 0.70212
 O498 O 0.77321 0.77491 0.72626
 Zr499 Zr 0.74850 0.74768 0.79090
 O500 O 0.72704 0.72507 0.76684
 Zr501 Zr 0.79468 0.75253 0.75007
 O502 O 0.77588 0.72968 0.72391
 Zr503 Zr 0.74921 0.79433 0.75025
 O504 O 0.72819 0.77412 0.72377
 O505 O 0.72884 0.72709 0.71974
 O506 O 0.77197 0.77334 0.77360
 C507 C 0.75548 0.69661 0.68569
 C508 C 0.69499 0.69131 0.74109
 C509 C 0.69673 0.75322 0.68590
 C510 C 0.74661 0.80306 0.80748
 C511 C 0.80406 0.74913 0.80713
 C512 C 0.80492 0.80954 0.75360
 H513 H 0.78260 0.71464 0.77859
 H514 H 0.78357 0.78632 0.71622
 H515 H 0.71906 0.71682 0.70799
 H516 H 0.71294 0.77911 0.77961
 H517 H 0.70596 0.73405 0.80862
 H518 H 0.67943 0.75318 0.78268
 H519 H 0.82027 0.76750 0.71196
 H520 H 0.79539 0.74271 0.68312
 H521 H 0.76066 0.70570 0.81206
 H522 H 0.73964 0.68119 0.78234
 H523 H 0.76028 0.82132 0.71186
 H524 H 0.74265 0.79490 0.68252
 H525 H 0.79444 0.68696 0.73377
 H526 H 0.81971 0.71252 0.76076
 H527 H 0.68514 0.79000 0.73167
 H528 H 0.70819 0.81663 0.76316
 O529 O 0.24869 0.68400 0.28266
 O530 O 0.22471 0.67610 0.24541
 O531 O 0.31420 0.71880 0.25270
 O532 O 0.32384 0.75273 0.23123
 O533 O 0.27565 0.74896 0.31677
 O534 O 0.23953 0.77558 0.32053
 O535 O 0.25102 0.78547 0.18590
 O536 O 0.28268 0.75355 0.18161
 O537 O 0.18710 0.74590 0.20883
 O538 O 0.17748 0.71783 0.24246
 O539 O 0.20990 0.81130 0.24658
 O540 O 0.24176 0.82045 0.27805
 O541 O 0.24735 0.81435 0.21662
 O542 O 0.27071 0.82248 0.25497
 O543 O 0.18212 0.77977 0.24146
 O544 O 0.17431 0.74306 0.27005
 O545 O 0.21929 0.75148 0.18202
 O546 O 0.25135 0.72430 0.17618
 O547 O 0.24177 0.71337 0.31239
 O548 O 0.21341 0.74678 0.31786
 O549 O 0.30820 0.75252 0.28991
 O550 O 0.31563 0.78254 0.25582
 O551 O 0.28633 0.68691 0.25228
 O552 O 0.25444 0.67779 0.22080
 Zr553 Zr 0.25147 0.70469 0.24941
 O554 O 0.22930 0.72520 0.22435
 Zr555 Zr 0.29199 0.75103 0.25424
 O556 O 0.27162 0.77350 0.22944
 Zr557 Zr 0.24426 0.74740 0.29348
 O558 O 0.22180 0.76969 0.27050
 Zr559 Zr 0.25103 0.75118 0.20491
 O560 O 0.27406 0.72834 0.22759
 Zr561 Zr 0.20373 0.74716 0.24416
 O562 O 0.22391 0.72437 0.26918
 Zr563 Zr 0.24459 0.79348 0.24948
 O564 O 0.26694 0.77316 0.27469
 O565 O 0.27078 0.72623 0.27493
 O566 O 0.22469 0.77253 0.22361
 C567 C 0.24437 0.69074 0.30520
 C568 C 0.30864 0.69552 0.25265
 C569 C 0.29896 0.75132 0.31193
 C570 C 0.24971 0.80805 0.19374
 C571 C 0.19604 0.74869 0.18687
 C572 C 0.18775 0.80295 0.24326
 H573 H 0.22100 0.71361 0.21270
 H574 H 0.20983 0.77904 0.28087
 H575 H 0.28096 0.71593 0.28630
 H576 H 0.28321 0.78452 0.22033
 H577 H 0.29386 0.73967 0.18633
 H578 H 0.31827 0.75917 0.21495
 H579 H 0.17412 0.75795 0.28087
 H580 H 0.20087 0.73572 0.31014
 H581 H 0.26055 0.70980 0.18272
 H582 H 0.26983 0.68150 0.21138
 H583 H 0.22800 0.81542 0.28919
 H584 H 0.25158 0.78892 0.31645
 H585 H 0.21059 0.68053 0.25639
 H586 H 0.18425 0.70497 0.23116
 H587 H 0.30921 0.79344 0.26921
 H588 H 0.28452 0.81992 0.24307
 O589 O 0.74664 0.31607 0.27749
 O590 O 0.77134 0.32246 0.24069
 O591 O 0.68101 0.28147 0.24965
 O592 O 0.67166 0.24786 0.22646
 O593 O 0.71814 0.25148 0.31330
 O594 O 0.75453 0.22587 0.31857
 O595 O 0.74328 0.21226 0.18366
 O596 O 0.71328 0.24357 0.17766
 O597 O 0.80812 0.25126 0.20657
 O598 O 0.81741 0.28051 0.24063
 O599 O 0.78436 0.18722 0.24661
 O600 O 0.75081 0.17930 0.27684
 O601 O 0.75035 0.18427 0.21461
 O602 O 0.72310 0.17680 0.25180
 O603 O 0.81239 0.21821 0.23991
 O604 O 0.82098 0.25465 0.26733
 O605 O 0.77616 0.24528 0.17953
 O606 O 0.74032 0.27395 0.17345
 O607 O 0.74984 0.28752 0.30866
 O608 O 0.78073 0.25523 0.31463
 O609 O 0.68582 0.24796 0.28621
 O610 O 0.67841 0.21763 0.25342
 O611 O 0.70957 0.31233 0.24396
 O612 O 0.74223 0.32006 0.21530
 Zr613 Zr 0.74420 0.29425 0.24490
 O614 O 0.76642 0.27283 0.22083
 Zr615 Zr 0.70260 0.24867 0.25078
 O616 O 0.72305 0.22527 0.22676
 Zr617 Zr 0.74982 0.25294 0.29043
 O618 O 0.77234 0.22960 0.26844
 Zr619 Zr 0.74409 0.24684 0.20192
 O620 O 0.72128 0.27031 0.22386
 Zr621 Zr 0.79120 0.25110 0.24179
 O622 O 0.77100 0.27488 0.26585
 Zr623 Zr 0.74976 0.20553 0.24749
 O624 O 0.72729 0.22679 0.27196
 O625 O 0.72396 0.27387 0.27074
 O626 O 0.77008 0.22574 0.22146
 C627 C 0.74842 0.30997 0.30055
 C628 C 0.68713 0.30440 0.24627
 C629 C 0.69485 0.24940 0.30831
 C630 C 0.74709 0.19005 0.19167
 C631 C 0.79936 0.24798 0.18461
 C632 C 0.80656 0.19517 0.24267
 H633 H 0.77534 0.28404 0.20933
 H634 H 0.78393 0.22033 0.27929
 H635 H 0.71351 0.28457 0.28149
 H636 H 0.71163 0.21405 0.21772
 H637 H 0.70051 0.25546 0.18361
 H638 H 0.67617 0.23714 0.21220
 H639 H 0.81927 0.24133 0.27992
 H640 H 0.79253 0.26715 0.30698
 H641 H 0.75468 0.28543 0.17429
 H642 H 0.73138 0.31244 0.20253
 H643 H 0.76442 0.18423 0.28820
 H644 H 0.74285 0.21215 0.31470
 H645 H 0.78528 0.31807 0.25190
 H646 H 0.81198 0.29235 0.22763
 H647 H 0.68584 0.20607 0.26568
 H648 H 0.71087 0.17826 0.23814
 C649 C 0.22539 0.09006 0.06558
 C650 C 0.24308 0.09271 0.08494
 C651 C 0.26162 0.07404 0.08724
 C652 C 0.26327 0.05467 0.06978
 C653 C 0.24600 0.05274 0.05039
 C654 C 0.22680 0.07029 0.04874
 C655 C 0.27849 0.07480 0.10691
 C656 C 0.27715 0.09345 0.12472
 C657 C 0.25931 0.11270 0.12309
 C658 C 0.24281 0.11298 0.10223
 C659 C 0.22714 0.13384 0.09894
 C660 C 0.22716 0.15350 0.11575
 C661 C 0.24205 0.15277 0.13696
 C662 C 0.25787 0.13206 0.14131
 C663 C 0.27119 0.13136 0.16401
 C664 C 0.26926 0.15068 0.18126
 C665 C 0.25446 0.17153 0.17631
 C666 C 0.24097 0.17255 0.15407
 H667 H 0.20997 0.10269 0.06325
 H668 H 0.27790 0.04084 0.07146
 H669 H 0.21309 0.06901 0.03404
 H670 H 0.29277 0.06064 0.10871
 H671 H 0.29104 0.09278 0.13915
 H672 H 0.21519 0.13594 0.08300
 H673 H 0.21507 0.16929 0.11228
 H674 H 0.28265 0.11578 0.16938
 H675 H 0.27954 0.14940 0.19854
 H676 H 0.22897 0.18840 0.15047
 C677 C 0.78431 0.56467 0.58766
 C678 C 0.76727 0.58476 0.58901
 C679 C 0.74984 0.58743 0.56937
 C680 C 0.74870 0.56976 0.55014
 C681 C 0.76562 0.54997 0.54926
 C682 C 0.78359 0.54777 0.56794
 C683 C 0.73383 0.60786 0.56886
 C684 C 0.73512 0.62615 0.58707
 C685 C 0.75194 0.62424 0.60714
 C686 C 0.76730 0.60254 0.60883
 C687 C 0.78164 0.59903 0.63054
 C688 C 0.78142 0.61638 0.64972
 C689 C 0.76773 0.63835 0.64765
 C690 C 0.75338 0.64296 0.62600
 C691 C 0.74136 0.66634 0.62397
 C692 C 0.74272 0.68383 0.64310
 C693 C 0.75576 0.67856 0.66500
 C694 C 0.76831 0.65580 0.66715
 H695 H 0.79890 0.56196 0.60114
 H696 H 0.73511 0.57184 0.53537
 H697 H 0.79704 0.53273 0.56742
 H698 H 0.72039 0.60996 0.55398
 H699 H 0.72198 0.64122 0.58538
 H700 H 0.79258 0.58250 0.63369
 H701 H 0.79238 0.61268 0.66624
 H702 H 0.73120 0.67189 0.60761
 H703 H 0.73301 0.70139 0.64096
 H704 H 0.77881 0.65181 0.68389
 C705 C 0.71313 0.91724 0.06414
 C706 C 0.73387 0.90900 0.07811
 C707 C 0.75658 0.92214 0.07526
 C708 C 0.75867 0.94155 0.05791
 C709 C 0.73805 0.94933 0.04386
 C710 C 0.71517 0.93720 0.04756
 C711 C 0.77713 0.91596 0.08982
 C712 C 0.77547 0.89750 0.10779
 C713 C 0.75332 0.88380 0.11128
 C714 C 0.73272 0.88858 0.09518
 C715 C 0.71198 0.87244 0.09629
 C716 C 0.71111 0.85275 0.11310
 C717 C 0.73027 0.84908 0.13023
 C718 C 0.75133 0.86505 0.13001
 C719 C 0.76921 0.86212 0.14906
 C720 C 0.76651 0.84374 0.16711
 C721 C 0.74638 0.82729 0.16650
 C722 C 0.72834 0.82983 0.14793
 H723 H 0.69491 0.90908 0.06612
 H724 H 0.77643 0.95094 0.05577
 H725 H 0.69875 0.94281 0.03731
 H726 H 0.79462 0.92578 0.08760
 H727 H 0.79225 0.89373 0.11811
 H728 H 0.69645 0.87406 0.08371
 H729 H 0.69498 0.84063 0.11306
 H730 H 0.78497 0.87436 0.15112
 H731 H 0.78033 0.84230 0.18168
 H732 H 0.71240 0.81744 0.14784
 C733 C 0.23490 0.40685 0.55998
 C734 C 0.24986 0.40553 0.58160
 C735 C 0.26754 0.42477 0.58557
 C736 C 0.27091 0.44362 0.56781
 C737 C 0.25585 0.44459 0.54666
 C738 C 0.23771 0.42629 0.54300
 C739 C 0.28143 0.42536 0.60743
 C740 C 0.27759 0.40775 0.62592
 C741 C 0.26031 0.38819 0.62281
 C742 C 0.24737 0.38621 0.59969
 C743 C 0.23288 0.36472 0.59522
 C744 C 0.23064 0.34608 0.61299
 C745 C 0.24182 0.34857 0.63624
 C746 C 0.25613 0.37007 0.64177
 C747 C 0.26534 0.37274 0.66624
 C748 C 0.26167 0.35417 0.68395
 C749 C 0.24904 0.33218 0.67786
 C750 C 0.23890 0.32961 0.65401
 H751 H 0.22024 0.39370 0.55615
 H752 H 0.28457 0.45817 0.57093
 H753 H 0.22568 0.42700 0.52685
 H754 H 0.29508 0.43991 0.61051
 H755 H 0.28917 0.40943 0.64220
 H756 H 0.22380 0.36132 0.57769
 H757 H 0.21975 0.32966 0.60858
 H758 H 0.27503 0.38920 0.67242
 H759 H 0.26933 0.35683 0.70237
 H760 H 0.22863 0.31287 0.64930
 C761 C 0.77581 0.06963 0.90757
 C762 C 0.75613 0.08604 0.90131
 C763 C 0.73465 0.08587 0.91666
 C764 C 0.73250 0.06881 0.93633
 C765 C 0.75195 0.05237 0.94188
 C766 C 0.77374 0.05324 0.92763
 C767 C 0.71540 0.10273 0.91233
 C768 C 0.71717 0.12024 0.89345
 C769 C 0.73803 0.12106 0.87751
 C770 C 0.75719 0.10283 0.88068
 C771 C 0.77639 0.10160 0.86277
 C772 C 0.77726 0.11808 0.84286
 C773 C 0.75964 0.13701 0.84049
 C774 C 0.74011 0.13917 0.85814
 C775 C 0.72385 0.15983 0.85605
 C776 C 0.72670 0.17723 0.83702
 C777 C 0.74537 0.17438 0.81916
 C778 C 0.76169 0.15414 0.82081
 H779 H 0.79324 0.06939 0.89766
 H780 H 0.71575 0.06854 0.94758
 H781 H 0.78910 0.04082 0.93172
 H782 H 0.69887 0.10259 0.92389
 H783 H 0.70138 0.13242 0.89123
 H784 H 0.79066 0.08750 0.86321
 H785 H 0.79219 0.11626 0.82942
 H786 H 0.70933 0.16359 0.86935
 H787 H 0.71418 0.19304 0.83622
 H788 H 0.77659 0.15231 0.80732
 C789 C 0.28613 0.57169 0.41348
 C790 C 0.26524 0.58698 0.40837
 C791 C 0.24499 0.58614 0.42526
 C792 C 0.24510 0.56940 0.44526
 C793 C 0.26546 0.55367 0.44941
 C794 C 0.28618 0.55538 0.43373
 C795 C 0.22454 0.60174 0.42198
 C796 C 0.22377 0.61855 0.40243
 C797 C 0.24326 0.61995 0.38489
 C798 C 0.26381 0.60315 0.38726
 C799 C 0.28180 0.60258 0.36813
 C800 C 0.28019 0.61836 0.34772
 C801 C 0.26111 0.63589 0.34594
 C802 C 0.24264 0.63731 0.36475
 C803 C 0.22469 0.65654 0.36297
 C804 C 0.22509 0.67343 0.34332
 C805 C 0.24296 0.67147 0.32455
 C806 C 0.26074 0.65247 0.32572
 H807 H 0.30279 0.57205 0.40234
 H808 H 0.22913 0.56849 0.45758
 H809 H 0.30224 0.54354 0.43669
 H810 H 0.20895 0.60105 0.43476
 H811 H 0.20712 0.62964 0.40111
 H812 H 0.29707 0.58956 0.36803
 H813 H 0.29432 0.61713 0.33339
 H814 H 0.21069 0.65970 0.37695
 H815 H 0.21145 0.68830 0.34288
 H816 H 0.27502 0.65137 0.31151
 C817 C 0.28427 0.91644 0.92890
 C818 C 0.26380 0.90939 0.91391
 C819 C 0.24151 0.92334 0.91626
 C820 C 0.23942 0.94221 0.93419
 C821 C 0.25971 0.94869 0.94933
 C822 C 0.28229 0.93590 0.94606
 C823 C 0.22138 0.91845 0.90066
 C824 C 0.22300 0.90036 0.88232
 C825 C 0.24462 0.88568 0.87948
 C826 C 0.26479 0.88933 0.89642
 C827 C 0.28487 0.87236 0.89582
 C828 C 0.28544 0.85275 0.87892
 C829 C 0.26665 0.84995 0.86124
 C830 C 0.24638 0.86690 0.86075
 C831 C 0.22891 0.86462 0.84120
 C832 C 0.23104 0.84573 0.82356
 C833 C 0.25028 0.82826 0.82501
 C834 C 0.26805 0.83037 0.84391
 H835 H 0.30226 0.90768 0.92734
 H836 H 0.22195 0.95219 0.93594
 H837 H 0.29848 0.94056 0.95712
 H838 H 0.20423 0.92896 0.90243
 H839 H 0.20653 0.89759 0.87123
 H840 H 0.30003 0.87317 0.90892
 H841 H 0.30097 0.83988 0.87946
 H842 H 0.21378 0.87755 0.83861
 H843 H 0.21728 0.84448 0.80892
 H844 H 0.28326 0.81710 0.84473
 C845 C 0.78377 0.43788 0.40069
 C846 C 0.76360 0.42141 0.39659
 C847 C 0.74369 0.42181 0.41393
 C848 C 0.74359 0.43891 0.43367
 C849 C 0.76369 0.45506 0.43736
 C850 C 0.78383 0.45423 0.42088
 C851 C 0.72412 0.40493 0.41167
 C852 C 0.72425 0.38696 0.39313
 C853 C 0.74369 0.38569 0.37551
 C854 C 0.76285 0.40414 0.37635
 C855 C 0.78032 0.40495 0.35675
 C856 C 0.77972 0.38768 0.33750
 C857 C 0.76235 0.36837 0.33750
 C858 C 0.74440 0.36680 0.35681
 C859 C 0.72836 0.34590 0.35705
 C860 C 0.72994 0.32766 0.33870
 C861 C 0.74711 0.32980 0.31931
 C862 C 0.76310 0.35032 0.31855
 H863 H 0.80012 0.43805 0.38908
 H864 H 0.72814 0.43916 0.44665
 H865 H 0.79966 0.46645 0.42349
 H866 H 0.70872 0.40529 0.42470
 H867 H 0.70838 0.37471 0.39262
 H868 H 0.79433 0.41924 0.35538
 H869 H 0.79338 0.38913 0.32274
 H870 H 0.71501 0.34261 0.37163
 H871 H 0.71752 0.31179 0.33956
 H872 H 0.77670 0.35171 0.30371
 C873 C 0.06414 0.21994 0.08869
 C874 C 0.08403 0.23717 0.09064
 C875 C 0.08650 0.25529 0.07162
 C876 C 0.06876 0.25702 0.05258
 C877 C 0.04888 0.24024 0.05134
 C878 C 0.04699 0.22141 0.06921
 C879 C 0.10662 0.27166 0.07168
 C880 C 0.12467 0.27032 0.09005
 C881 C 0.12285 0.25298 0.10969
 C882 C 0.10162 0.23691 0.11060
 C883 C 0.09827 0.22176 0.13179
 C884 C 0.11523 0.22204 0.15128
 C885 C 0.13664 0.23667 0.15007
 C886 C 0.14118 0.25176 0.12892
 C887 C 0.16408 0.26477 0.12776
 C888 C 0.18115 0.26358 0.14726
 C889 C 0.17588 0.24973 0.16863
 C890 C 0.15363 0.23623 0.16991
 H891 H 0.06160 0.20483 0.10162
 H892 H 0.07062 0.27129 0.03844
 H893 H 0.03190 0.20805 0.06839
 H894 H 0.10855 0.28559 0.05721
 H895 H 0.13941 0.28386 0.08887
 H896 H 0.08214 0.21010 0.13430
 H897 H 0.11165 0.21046 0.16740
 H898 H 0.16964 0.27556 0.11182
 H899 H 0.19843 0.27387 0.14575
 H900 H 0.14977 0.22495 0.18619
 C901 C 0.56690 0.72331 0.58585
 C902 C 0.58617 0.74119 0.58812
 C903 C 0.58765 0.76007 0.56974
 C904 C 0.56945 0.76188 0.55112
 C905 C 0.55010 0.74449 0.54967
 C906 C 0.54929 0.72492 0.56681
 C907 C 0.60718 0.77714 0.57008
 C908 C 0.62557 0.77582 0.58815
 C909 C 0.62466 0.75779 0.60722
 C910 C 0.60407 0.74089 0.60781
 C911 C 0.60158 0.72486 0.62846
 C912 C 0.61876 0.72507 0.64773
 C913 C 0.63956 0.74057 0.64681
 C914 C 0.64326 0.75662 0.62621
 C915 C 0.66561 0.77060 0.62537
 C916 C 0.68299 0.76927 0.64462
 C917 C 0.67852 0.75435 0.66545
 C918 C 0.65679 0.74000 0.66641
 H919 H 0.56518 0.70762 0.59821
 H920 H 0.57048 0.77676 0.53753
 H921 H 0.53464 0.71109 0.56583
 H922 H 0.60838 0.79163 0.55609
 H923 H 0.63982 0.78990 0.58722
 H924 H 0.58594 0.71252 0.63075
 H925 H 0.61585 0.71276 0.66344
 H926 H 0.67052 0.78227 0.60983
 H927 H 0.69989 0.78021 0.64335
 H928 H 0.65356 0.72792 0.68224
 C929 C 0.07118 0.71586 0.91749
 C930 C 0.08740 0.73579 0.91166
 C931 C 0.08506 0.75803 0.92564
 C932 C 0.06594 0.76072 0.94322
 C933 C 0.04966 0.74094 0.94854
 C934 C 0.05291 0.71833 0.93580
 C935 C 0.10190 0.77748 0.92212
 C936 C 0.12139 0.77520 0.90532
 C937 C 0.12412 0.75370 0.89047
 C938 C 0.10607 0.73426 0.89276
 C939 C 0.10671 0.71445 0.87552
 C940 C 0.12454 0.71353 0.85682
 C941 C 0.14310 0.73162 0.85526
 C942 C 0.14375 0.75144 0.87269
 C943 C 0.16419 0.76807 0.87168
 C944 C 0.18236 0.76582 0.85327
 C945 C 0.18054 0.74729 0.83512
 C946 C 0.16099 0.73011 0.83627
 H947 H 0.07264 0.69786 0.90871
 H948 H 0.06424 0.77816 0.95328
 H949 H 0.04099 0.70251 0.93964
 H950 H 0.10022 0.79456 0.93274
 H951 H 0.13345 0.79115 0.90356
 H952 H 0.09289 0.69989 0.87531
 H953 H 0.12393 0.69832 0.84357
 H954 H 0.16689 0.78270 0.88513
 H955 H 0.19755 0.77910 0.85278
 H956 H 0.15987 0.71543 0.82246
 C957 C 0.56345 0.22548 0.40833
 C958 C 0.58431 0.24153 0.40679
 C959 C 0.58783 0.25903 0.42622
 C960 C 0.57012 0.26144 0.44527
 C961 C 0.54932 0.24578 0.44612
 C962 C 0.54640 0.22750 0.42783
 C963 C 0.60898 0.27405 0.42659
 C964 C 0.62705 0.27186 0.40829
 C965 C 0.62421 0.25511 0.38826
 C966 C 0.60191 0.24062 0.38685
 C967 C 0.59758 0.22637 0.36522
 C968 C 0.61460 0.22600 0.34577
 C969 C 0.63703 0.23895 0.34749
 C970 C 0.64254 0.25302 0.36911
 C971 C 0.66635 0.26416 0.37079
 C972 C 0.68339 0.26232 0.35132
 C973 C 0.67722 0.24973 0.32939
 C974 C 0.65404 0.23792 0.32766
 H975 H 0.56009 0.21081 0.39507
 H976 H 0.57274 0.27526 0.45974
 H977 H 0.53057 0.21501 0.42834
 H978 H 0.61174 0.28751 0.44136
 H979 H 0.64268 0.28435 0.40980
 H980 H 0.58063 0.21604 0.36232
 H981 H 0.61024 0.21523 0.32929
 H982 H 0.67260 0.27393 0.38714
 H983 H 0.70137 0.27121 0.35331
 H984 H 0.64935 0.22762 0.31096
 C985 C 0.92957 0.77675 0.08629
 C986 C 0.91017 0.75899 0.08850
 C987 C 0.90853 0.74025 0.07000
 C988 C 0.92662 0.73848 0.05126
 C989 C 0.94606 0.75580 0.04980
 C990 C 0.94707 0.77520 0.06713
 C991 C 0.88889 0.72328 0.07030
 C992 C 0.87053 0.72463 0.08841
 C993 C 0.87154 0.74258 0.10756
 C994 C 0.89227 0.75931 0.10822
 C995 C 0.89485 0.77523 0.12895
 C996 C 0.87759 0.77511 0.14818
 C997 C 0.85664 0.75983 0.14716
 C998 C 0.85289 0.74385 0.12650
 C999 C 0.83040 0.73010 0.12553
 C1000 C 0.81288 0.73165 0.14464
 C1001 C 0.81734 0.74653 0.16550
 C1002 C 0.83926 0.76059 0.16666
 H1003 H 0.93146 0.79231 0.09879
 H1004 H 0.92542 0.72372 0.03755
 H1005 H 0.96179 0.78896 0.06617
 H1006 H 0.88757 0.70888 0.05624
 H1007 H 0.85619 0.71064 0.08743
 H1008 H 0.91058 0.78745 0.13131
 H1009 H 0.88057 0.78737 0.16393
 H1010 H 0.82546 0.71850 0.10995
 H1011 H 0.79584 0.72094 0.14324
 H1012 H 0.84246 0.77267 0.18250
 C1013 C 0.43199 0.28120 0.58802
 C1014 C 0.41177 0.26429 0.58935
 C1015 C 0.40926 0.24661 0.56993
 C1016 C 0.42735 0.24486 0.55119
 C1017 C 0.44763 0.26122 0.55066
 C1018 C 0.44949 0.27973 0.56885
 C1019 C 0.38879 0.23067 0.56933
 C1020 C 0.37051 0.23194 0.58752
 C1021 C 0.37244 0.24870 0.60764
 C1022 C 0.39394 0.26440 0.60911
 C1023 C 0.39735 0.27898 0.63068
 C1024 C 0.38029 0.27841 0.65007
 C1025 C 0.35872 0.26407 0.64840
 C1026 C 0.35403 0.24963 0.62684
 C1027 C 0.33096 0.23691 0.62535
 C1028 C 0.31389 0.23773 0.64492
 C1029 C 0.31938 0.25085 0.66668
 C1030 C 0.34176 0.26410 0.66826
 H1031 H 0.43456 0.29604 0.60126
 H1032 H 0.42551 0.23085 0.53678
 H1033 H 0.46486 0.29279 0.56856
 H1034 H 0.38679 0.21712 0.55452
 H1035 H 0.35549 0.21875 0.58582
 H1036 H 0.41362 0.29033 0.63359
 H1037 H 0.38396 0.28951 0.66651
 H1038 H 0.32531 0.22662 0.60911
 H1039 H 0.29648 0.22770 0.64320
 H1040 H 0.34577 0.27486 0.68486
 C1041 C 0.93073 0.27902 0.91282
 C1042 C 0.91535 0.25882 0.90580
 C1043 C 0.91701 0.23660 0.91991
 C1044 C 0.93471 0.23424 0.93893
 C1045 C 0.95019 0.25430 0.94545
 C1046 C 0.94759 0.27684 0.93247
 C1047 C 0.90089 0.21683 0.91508
 C1048 C 0.88266 0.21882 0.89691
 C1049 C 0.88054 0.24039 0.88207
 C1050 C 0.89808 0.26009 0.88563
 C1051 C 0.89828 0.27997 0.86845
 C1052 C 0.88153 0.28085 0.84878
 C1053 C 0.86323 0.26263 0.84612
 C1054 C 0.86194 0.24256 0.86324
 C1055 C 0.84175 0.22575 0.86107
 C1056 C 0.82423 0.22833 0.84212
 C1057 C 0.82654 0.24731 0.82452
 C1058 C 0.84606 0.26441 0.82650
 H1059 H 0.92965 0.29699 0.90395
 H1060 H 0.93594 0.21683 0.94908
 H1061 H 0.95893 0.29285 0.93717
 H1062 H 0.90212 0.19973 0.92573
 H1063 H 0.87108 0.20265 0.89421
 H1064 H 0.91191 0.29469 0.86916
 H1065 H 0.88267 0.29621 0.83575
 H1066 H 0.83859 0.21088 0.87415
 H1067 H 0.80899 0.21514 0.84095
 H1068 H 0.84748 0.27943 0.81310
 C1069 C 0.42881 0.78101 0.41211
 C1070 C 0.40901 0.76370 0.41019
 C1071 C 0.40704 0.74514 0.42884
 C1072 C 0.42528 0.74301 0.44739
 C1073 C 0.44513 0.75984 0.44850
 C1074 C 0.44644 0.77914 0.43109
 C1075 C 0.38696 0.72872 0.42887
 C1076 C 0.36851 0.73039 0.41089
 C1077 C 0.36992 0.74809 0.39153
 C1078 C 0.39105 0.76428 0.39058
 C1079 C 0.39401 0.77983 0.36962
 C1080 C 0.37681 0.77977 0.35036
 C1081 C 0.35554 0.76496 0.35160
 C1082 C 0.35133 0.74952 0.37257
 C1083 C 0.32857 0.73627 0.37372
 C1084 C 0.31140 0.73745 0.35430
 C1085 C 0.31642 0.75157 0.33304
 C1086 C 0.33845 0.76544 0.33186
 H1087 H 0.43094 0.79648 0.39953
 H1088 H 0.42387 0.72837 0.46121
 H1089 H 0.46149 0.79255 0.43183
 H1090 H 0.38537 0.71448 0.44307
 H1091 H 0.35382 0.71679 0.41210
 H1092 H 0.41005 0.79160 0.36706
 H1093 H 0.38014 0.79161 0.33438
 H1094 H 0.32327 0.72518 0.38955
 H1095 H 0.29434 0.72677 0.35569
 H1096 H 0.34215 0.77683 0.31563
 C1097 C 0.08656 0.06529 0.22511
 C1098 C 0.09054 0.08353 0.24368
 C1099 C 0.07292 0.08515 0.26327
 C1100 C 0.05320 0.06805 0.26489
 C1101 C 0.04990 0.04984 0.24659
 C1102 C 0.06647 0.04888 0.22653
 C1103 C 0.07504 0.10383 0.28113
 C1104 C 0.09389 0.12144 0.27966
 C1105 C 0.11198 0.12053 0.26064
 C1106 C 0.11108 0.10046 0.24321
 C1107 C 0.13102 0.09764 0.22633
 C1108 C 0.15077 0.11433 0.22593
 C1109 C 0.15100 0.13500 0.24162
 C1110 C 0.13130 0.13873 0.25881
 C1111 C 0.13140 0.16093 0.27299
 C1112 C 0.15049 0.17830 0.27048
 C1113 C 0.17033 0.17400 0.25421
 C1114 C 0.17065 0.15222 0.23995
 H1115 H 0.09830 0.06360 0.20895
 H1116 H 0.04016 0.06917 0.28024
 H1117 H 0.06415 0.03505 0.21205
 H1118 H 0.06175 0.10507 0.29624
 H1119 H 0.09430 0.13513 0.29430
 H1120 H 0.13230 0.08214 0.21366
 H1121 H 0.16581 0.11128 0.21283
 H1122 H 0.11655 0.16584 0.28554
 H1123 H 0.14981 0.19522 0.28145
 H1124 H 0.18574 0.14915 0.22691
 C1125 C 0.59400 0.56570 0.78129
 C1126 C 0.59715 0.58231 0.76108
 C1127 C 0.57862 0.58242 0.74231
 C1128 C 0.55878 0.56544 0.74309
 C1129 C 0.55630 0.54879 0.76294
 C1130 C 0.57380 0.54935 0.78220
 C1131 C 0.57993 0.59948 0.72283
 C1132 C 0.59888 0.61700 0.72186
 C1133 C 0.61784 0.61760 0.74001
 C1134 C 0.61772 0.59910 0.75912
 C1135 C 0.63841 0.59762 0.77524
 C1136 C 0.65811 0.61428 0.77339
 C1137 C 0.65757 0.63360 0.75608
 C1138 C 0.63718 0.63586 0.73945
 C1139 C 0.63662 0.65680 0.72347
 C1140 C 0.65556 0.67452 0.72397
 C1141 C 0.67592 0.67173 0.73991
 C1142 C 0.67705 0.65106 0.75569
 H1143 H 0.60652 0.56526 0.79693
 H1144 H 0.54503 0.56540 0.72834
 H1145 H 0.57212 0.53677 0.79785
 H1146 H 0.56592 0.59952 0.70831
 H1147 H 0.59862 0.62937 0.70610
 H1148 H 0.64027 0.58324 0.78909
 H1149 H 0.67369 0.61234 0.78604
 H1150 H 0.62132 0.66058 0.71108
 H1151 H 0.65428 0.69058 0.71184
 H1152 H 0.69258 0.64921 0.76845
 C1153 C 0.91775 0.07337 0.78761
 C1154 C 0.91022 0.08535 0.76545
 C1155 C 0.92361 0.07987 0.74342
 C1156 C 0.94245 0.06169 0.74343
 C1157 C 0.94948 0.04961 0.76553
 C1158 C 0.93717 0.05609 0.78764
 C1159 C 0.91828 0.09269 0.72151
 C1160 C 0.90037 0.11138 0.72111
 C1161 C 0.88627 0.11724 0.74247
 C1162 C 0.89027 0.10298 0.76455
 C1163 C 0.87379 0.10631 0.78473
 C1164 C 0.85453 0.12355 0.78367
 C1165 C 0.85157 0.13888 0.76296
 C1166 C 0.86783 0.13644 0.74230
 C1167 C 0.86532 0.15378 0.72261
 C1168 C 0.84704 0.17228 0.72326
 C1169 C 0.83039 0.17366 0.74315
 C1170 C 0.83260 0.15690 0.76290
 H1171 H 0.90947 0.07752 0.80539
 H1172 H 0.95207 0.05744 0.72621
 H1173 H 0.94223 0.04748 0.80514
 H1174 H 0.92836 0.08855 0.70455
 H1175 H 0.89731 0.12033 0.70344
 H1176 H 0.87476 0.09512 0.80133
 H1177 H 0.84209 0.12522 0.79946
 H1178 H 0.87773 0.15406 0.70687
 H1179 H 0.84575 0.18546 0.70807
 H1180 H 0.82000 0.15844 0.77859
 C1181 C 0.40837 0.56883 0.29556
 C1182 C 0.40696 0.58711 0.27661
 C1183 C 0.42659 0.58800 0.25900
 C1184 C 0.44560 0.57006 0.25936
 C1185 C 0.44622 0.55165 0.27776
 C1186 C 0.42783 0.55153 0.29616
 C1187 C 0.42711 0.60668 0.24102
 C1188 C 0.40869 0.62480 0.24021
 C1189 C 0.38840 0.62441 0.25688
 C1190 C 0.38694 0.60460 0.27463
 C1191 C 0.36516 0.60243 0.28917
 C1192 C 0.34561 0.61920 0.28670
 C1193 C 0.34733 0.63934 0.27042
 C1194 C 0.36907 0.64272 0.25584
 C1195 C 0.37068 0.66453 0.24110
 C1196 C 0.35115 0.68168 0.24031
 C1197 C 0.32927 0.67747 0.25372
 C1198 C 0.32745 0.65626 0.26875
 H1199 H 0.39496 0.56768 0.31042
 H1200 H 0.46014 0.57056 0.24538
 H1201 H 0.42815 0.53762 0.31074
 H1202 H 0.44205 0.60743 0.22749
 H1203 H 0.41035 0.63837 0.22556
 H1204 H 0.36225 0.58731 0.30201
 H1205 H 0.32904 0.61651 0.29789
 H1206 H 0.38704 0.66922 0.23050
 H1207 H 0.35305 0.69820 0.22890
 H1208 H 0.31076 0.65330 0.27969
 C1209 C 0.09303 0.93306 0.78367
 C1210 C 0.09304 0.91254 0.76714
 C1211 C 0.07225 0.90962 0.75115
 C1212 C 0.05326 0.92763 0.75062
 C1213 C 0.05389 0.94805 0.76680
 C1214 C 0.07364 0.95036 0.78356
 C1215 C 0.07046 0.88870 0.73589
 C1216 C 0.08864 0.87029 0.73643
 C1217 C 0.10994 0.87259 0.75162
 C1218 C 0.11274 0.89466 0.76626
 C1219 C 0.13542 0.89852 0.77893
 C1220 C 0.15453 0.88117 0.77782
 C1221 C 0.15152 0.85892 0.76482
 C1222 C 0.12895 0.85392 0.75210
 C1223 C 0.12628 0.83026 0.74073
 C1224 C 0.14557 0.81278 0.74135
 C1225 C 0.16821 0.81848 0.75286
 C1226 C 0.17103 0.84158 0.76456
 H1227 H 0.10738 0.93593 0.79736
 H1228 H 0.03767 0.92548 0.73800
 H1229 H 0.07430 0.96586 0.79644
 H1230 H 0.05464 0.88637 0.72360
 H1231 H 0.08592 0.85481 0.72397
 H1232 H 0.13938 0.91531 0.78915
 H1233 H 0.17179 0.88511 0.78751
 H1234 H 0.10930 0.82447 0.73175
 H1235 H 0.14290 0.79488 0.73245
 H1236 H 0.18836 0.84589 0.77393
 C1237 C 0.56546 0.40808 0.29163
 C1238 C 0.58031 0.40385 0.27029
 C1239 C 0.57897 0.42155 0.25076
 C1240 C 0.56233 0.44168 0.25211
 C1241 C 0.54745 0.44527 0.27317
 C1242 C 0.54945 0.42853 0.29302
 C1243 C 0.59426 0.41912 0.22998
 C1244 C 0.61146 0.39989 0.22838
 C1245 C 0.61352 0.38177 0.24729
 C1246 C 0.59675 0.38301 0.26790
 C1247 C 0.59664 0.36316 0.28511
 C1248 C 0.61303 0.34325 0.28285
 C1249 C 0.63074 0.34274 0.26391
 C1250 C 0.63156 0.36222 0.24609
 C1251 C 0.65097 0.36175 0.22830
 C1252 C 0.66864 0.34272 0.22827
 C1253 C 0.66729 0.32328 0.24549
 C1254 C 0.64809 0.32314 0.26306
 H1255 H 0.56619 0.39624 0.30779
 H1256 H 0.56118 0.45480 0.23682
 H1257 H 0.53826 0.43101 0.30959
 H1258 H 0.59318 0.43246 0.21489
 H1259 H 0.62243 0.39929 0.21163
 H1260 H 0.58355 0.36211 0.30025
 H1261 H 0.61218 0.32836 0.29644
 H1262 H 0.65366 0.37633 0.21481
 H1263 H 0.68360 0.34328 0.21476
 H1264 H 0.64739 0.30838 0.27681
 C1265 C 0.92288 0.91775 0.28109
 C1266 C 0.91138 0.90803 0.25947
 C1267 C 0.91828 0.91851 0.23629
 C1268 C 0.93631 0.93736 0.23497
 C1269 C 0.94767 0.94671 0.25654
 C1270 C 0.94062 0.93671 0.27959
 C1271 C 0.90712 0.91025 0.21443
 C1272 C 0.88880 0.89209 0.21496
 C1273 C 0.88106 0.88110 0.23751
 C1274 C 0.89312 0.88859 0.26005
 C1275 C 0.88671 0.87622 0.28231
 C1276 C 0.86873 0.85765 0.28275
 C1277 C 0.85606 0.85092 0.26118
 C1278 C 0.86183 0.86266 0.23824
 C1279 C 0.84778 0.85568 0.21706
 C1280 C 0.82909 0.83775 0.21869
 C1281 C 0.82386 0.82618 0.24128
 C1282 C 0.83743 0.83259 0.26246
 H1283 H 0.91833 0.91144 0.29953
 H1284 H 0.94129 0.94489 0.21693
 H1285 H 0.94881 0.94352 0.29669
 H1286 H 0.91247 0.91807 0.19663
 H1287 H 0.88137 0.88677 0.19716
 H1288 H 0.89558 0.88014 0.29982
 H1289 H 0.86450 0.84865 0.30028
 H1290 H 0.85035 0.86398 0.19903
 H1291 H 0.81872 0.83277 0.20217
 H1292 H 0.83312 0.82362 0.28000
 C1293 C 0.43603 0.40785 0.78352
 C1294 C 0.41960 0.40371 0.76338
 C1295 C 0.41964 0.42130 0.74370
 C1296 C 0.43651 0.44128 0.74370
 C1297 C 0.45286 0.44482 0.76363
 C1298 C 0.45223 0.42815 0.78363
 C1299 C 0.40276 0.41897 0.72418
 C1300 C 0.38519 0.40001 0.72411
 C1301 C 0.38436 0.38207 0.74328
 C1302 C 0.40277 0.38311 0.76242
 C1303 C 0.40404 0.36330 0.77965
 C1304 C 0.38718 0.34369 0.77890
 C1305 C 0.36788 0.34348 0.76158
 C1306 C 0.36592 0.36290 0.74377
 C1307 C 0.34507 0.36278 0.72771
 C1308 C 0.32715 0.34410 0.72926
 C1309 C 0.32960 0.32472 0.74642
 C1310 C 0.35017 0.32421 0.76230
 H1311 H 0.43639 0.39610 0.79975
 H1312 H 0.43663 0.45435 0.72833
 H1313 H 0.46461 0.43060 0.79933
 H1314 H 0.40284 0.43220 0.70896
 H1315 H 0.37292 0.39947 0.70828
 H1316 H 0.41838 0.36205 0.79359
 H1317 H 0.38893 0.32883 0.79242
 H1318 H 0.34153 0.37735 0.71440
 H1319 H 0.31124 0.34475 0.71692
 H1320 H 0.35180 0.30938 0.77589
 C1321 C 0.06760 0.21923 0.91067
 C1322 C 0.08805 0.23587 0.90982
 C1323 C 0.09053 0.25332 0.92946
 C1324 C 0.07215 0.25520 0.94789
 C1325 C 0.05162 0.23916 0.94789
 C1326 C 0.04980 0.22081 0.92954
 C1327 C 0.11123 0.26892 0.93054
 C1328 C 0.12974 0.26757 0.91261
 C1329 C 0.12781 0.25110 0.89224
 C1330 C 0.10612 0.23574 0.89030
 C1331 C 0.10274 0.22151 0.86849
 C1332 C 0.11998 0.22216 0.84927
 C1333 C 0.14169 0.23621 0.85138
 C1334 C 0.14639 0.25020 0.87323
 C1335 C 0.16960 0.26258 0.87515
 C1336 C 0.18677 0.26197 0.85567
 C1337 C 0.18123 0.24940 0.83360
 C1338 C 0.15875 0.23641 0.83164
 H1339 H 0.06504 0.20452 0.89728
 H1340 H 0.07393 0.26906 0.96245
 H1341 H 0.03422 0.20800 0.92944
 H1342 H 0.11322 0.28227 0.94553
 H1343 H 0.14493 0.28051 0.91466
 H1344 H 0.08634 0.21043 0.86523
 H1345 H 0.11633 0.21139 0.83262
 H1346 H 0.17527 0.27247 0.89164
 H1347 H 0.20426 0.27182 0.85768
 H1348 H 0.15471 0.22611 0.81482
 C1349 C 0.56211 0.72621 0.40774
 C1350 C 0.58098 0.74440 0.40479
 C1351 C 0.58302 0.76310 0.42331
 C1352 C 0.56583 0.76431 0.44290
 C1353 C 0.54696 0.74650 0.44517
 C1354 C 0.54552 0.72722 0.42773
 C1355 C 0.60217 0.78056 0.42221
 C1356 C 0.61977 0.77966 0.40337
 C1357 C 0.61844 0.76163 0.38431
 C1358 C 0.59805 0.74450 0.38437
 C1359 C 0.59501 0.72856 0.36371
 C1360 C 0.61164 0.72894 0.34392
 C1361 C 0.63242 0.74449 0.34432
 C1362 C 0.63651 0.76058 0.36483
 C1363 C 0.65881 0.77461 0.36523
 C1364 C 0.67587 0.77316 0.34576
 C1365 C 0.67115 0.75809 0.32510
 C1366 C 0.64935 0.74383 0.32441
 H1367 H 0.55999 0.71069 0.39522
 H1368 H 0.56735 0.77900 0.45665
 H1369 H 0.53120 0.71310 0.42928
 H1370 H 0.60374 0.79497 0.43623
 H1371 H 0.63377 0.79401 0.40376
 H1372 H 0.57940 0.71610 0.36188
 H1373 H 0.60837 0.71662 0.32829
 H1374 H 0.66402 0.78629 0.38066
 H1375 H 0.69282 0.78406 0.34679
 H1376 H 0.64596 0.73165 0.30868
 C1377 C 0.92793 0.78061 0.91417
 C1378 C 0.91232 0.76042 0.90758
 C1379 C 0.91430 0.73825 0.92173
 C1380 C 0.93246 0.73593 0.94035
 C1381 C 0.94815 0.75597 0.94646
 C1382 C 0.94526 0.77847 0.93345
 C1383 C 0.89806 0.71847 0.91735
 C1384 C 0.87945 0.72036 0.89955
 C1385 C 0.87701 0.74183 0.88462
 C1386 C 0.89456 0.76160 0.88777
 C1387 C 0.89430 0.78144 0.87053
 C1388 C 0.87722 0.78212 0.85111
 C1389 C 0.85902 0.76373 0.84877
 C1390 C 0.85809 0.74379 0.86604
 C1391 C 0.83798 0.72684 0.86424
 C1392 C 0.82026 0.72906 0.84541
 C1393 C 0.82225 0.74783 0.82753
 C1394 C 0.84162 0.76518 0.82928
 H1395 H 0.92669 0.79853 0.90521
 H1396 H 0.93390 0.71854 0.95052
 H1397 H 0.95674 0.79447 0.93783
 H1398 H 0.89952 0.70142 0.92805
 H1399 H 0.86784 0.70416 0.89719
 H1400 H 0.90782 0.79626 0.87098
 H1401 H 0.87806 0.79742 0.83798
 H1402 H 0.83506 0.71207 0.87750
 H1403 H 0.80515 0.71572 0.84452
 H1404 H 0.84280 0.78011 0.81577
 C1405 C 0.43185 0.28149 0.40978
 C1406 C 0.41147 0.26478 0.40851
 C1407 C 0.40895 0.24700 0.42785
 C1408 C 0.42710 0.24503 0.44651
 C1409 C 0.44744 0.26129 0.44707
 C1410 C 0.44939 0.27982 0.42890
 C1411 C 0.38838 0.23121 0.42848
 C1412 C 0.36995 0.23281 0.41048
 C1413 C 0.37182 0.24978 0.39052
 C1414 C 0.39345 0.26524 0.38892
 C1415 C 0.39675 0.27996 0.36742
 C1416 C 0.37944 0.27975 0.34823
 C1417 C 0.35770 0.26568 0.35008
 C1418 C 0.35315 0.25116 0.37163
 C1419 C 0.32995 0.23879 0.37345
 C1420 C 0.31262 0.23991 0.35417
 C1421 C 0.31790 0.25306 0.33236
 C1422 C 0.34043 0.26604 0.33046
 H1423 H 0.43449 0.29635 0.39658
 H1424 H 0.42522 0.23099 0.46089
 H1425 H 0.46484 0.29279 0.42918
 H1426 H 0.38639 0.21755 0.44318
 H1427 H 0.35487 0.21970 0.41219
 H1428 H 0.41313 0.29115 0.36440
 H1429 H 0.38302 0.29093 0.33183
 H1430 H 0.32438 0.22852 0.38973
 H1431 H 0.29515 0.23002 0.35616
 H1432 H 0.34435 0.27673 0.31382
 C1433 C 0.06494 0.72079 0.08743
 C1434 C 0.08494 0.73791 0.08923
 C1435 C 0.08707 0.75631 0.07045
 C1436 C 0.06889 0.75840 0.05181
 C1437 C 0.04892 0.74167 0.05071
 C1438 C 0.04738 0.72260 0.06834
 C1439 C 0.10730 0.77256 0.07033
 C1440 C 0.12577 0.77082 0.08830
 C1441 C 0.12428 0.75323 0.10774
 C1442 C 0.10297 0.73725 0.10881
 C1443 C 0.09998 0.72177 0.12981
 C1444 C 0.11732 0.72164 0.14896
 C1445 C 0.13876 0.73621 0.14759
 C1446 C 0.14297 0.75165 0.12663
 C1447 C 0.16588 0.76467 0.12538
 C1448 C 0.18324 0.76317 0.14464
 C1449 C 0.17828 0.74900 0.16590
 C1450 C 0.15604 0.73544 0.16718
 H1451 H 0.06263 0.70547 0.10017
 H1452 H 0.07049 0.77288 0.03783
 H1453 H 0.03226 0.70926 0.06763
 H1454 H 0.10901 0.78669 0.05603
 H1455 H 0.14061 0.78426 0.08698
 H1456 H 0.08385 0.71015 0.13246
 H1457 H 0.11398 0.70982 0.16495
 H1458 H 0.17116 0.77578 0.10956
 H1459 H 0.20045 0.77354 0.14309
 H1460 H 0.15232 0.72398 0.18336
 C1461 C 0.56700 0.22690 0.58727
 C1462 C 0.58724 0.24380 0.58839
 C1463 C 0.58942 0.26164 0.56908
 C1464 C 0.57107 0.26348 0.55060
 C1465 C 0.55086 0.24703 0.55019
 C1466 C 0.54926 0.22844 0.56833
 C1467 C 0.60988 0.27759 0.56830
 C1468 C 0.62854 0.27606 0.58609
 C1469 C 0.62701 0.25901 0.60601
 C1470 C 0.60547 0.24343 0.60779
 C1471 C 0.60246 0.22864 0.62927
 C1472 C 0.62006 0.22873 0.64819
 C1473 C 0.64178 0.24279 0.64609
 C1474 C 0.64596 0.25758 0.62465
 C1475 C 0.66912 0.27004 0.62265
 C1476 C 0.68686 0.26851 0.64155
 C1477 C 0.68201 0.25492 0.66320
 C1478 C 0.65943 0.24206 0.66534
 H1479 H 0.56464 0.21197 0.60044
 H1480 H 0.57269 0.27757 0.53624
 H1481 H 0.53393 0.21533 0.56816
 H1482 H 0.61163 0.29129 0.55360
 H1483 H 0.64355 0.28923 0.58424
 H1484 H 0.58614 0.21743 0.63247
 H1485 H 0.61674 0.21742 0.66454
 H1486 H 0.67435 0.28063 0.60645
 H1487 H 0.70434 0.27831 0.63938
 H1488 H 0.65583 0.23103 0.68184
 C1489 C 0.92940 0.27674 0.08447
 C1490 C 0.91005 0.25896 0.08685
 C1491 C 0.90864 0.23983 0.06873
 C1492 C 0.92694 0.23773 0.05024
 C1493 C 0.94635 0.25505 0.04868
 C1494 C 0.94712 0.27482 0.06558
 C1495 C 0.88904 0.22283 0.06919
 C1496 C 0.87054 0.22447 0.08711
 C1497 C 0.87137 0.24278 0.10593
 C1498 C 0.89202 0.25962 0.10640
 C1499 C 0.89442 0.27597 0.12681
 C1500 C 0.87709 0.27614 0.14594
 C1501 C 0.85625 0.26069 0.14514
 C1502 C 0.85266 0.24428 0.12479
 C1503 C 0.83033 0.23025 0.12411
 C1504 C 0.81290 0.23185 0.14330
 C1505 C 0.81727 0.24715 0.16388
 C1506 C 0.83894 0.26159 0.16465
 H1507 H 0.93110 0.29260 0.09662
 H1508 H 0.92593 0.22268 0.03682
 H1509 H 0.96181 0.28861 0.06450
 H1510 H 0.88789 0.20815 0.05539
 H1511 H 0.85624 0.21043 0.08628
 H1512 H 0.91008 0.28829 0.12904
 H1513 H 0.87994 0.28868 0.16147
 H1514 H 0.82552 0.21827 0.10879
 H1515 H 0.79612 0.22070 0.14225
 H1516 H 0.84213 0.27389 0.18033
 C1517 C 0.43122 0.77778 0.58915
 C1518 C 0.41218 0.75969 0.59166
 C1519 C 0.41057 0.74090 0.57320
 C1520 C 0.42833 0.73950 0.55413
 C1521 C 0.44738 0.75721 0.55233
 C1522 C 0.44839 0.77657 0.56969
 C1523 C 0.39126 0.72359 0.57383
 C1524 C 0.37315 0.72465 0.59221
 C1525 C 0.37412 0.74269 0.61127
 C1526 C 0.39456 0.75978 0.61160
 C1527 C 0.39714 0.77584 0.63222
 C1528 C 0.38011 0.77558 0.65162
 C1529 C 0.35940 0.75997 0.65092
 C1530 C 0.35570 0.74375 0.63044
 C1531 C 0.33350 0.72951 0.62991
 C1532 C 0.31627 0.73078 0.64929
 C1533 C 0.32070 0.74598 0.66995
 C1534 C 0.34229 0.76055 0.67063
 H1535 H 0.43305 0.79339 0.60161
 H1536 H 0.42712 0.72476 0.54040
 H1537 H 0.46280 0.79064 0.56846
 H1538 H 0.38998 0.70914 0.55981
 H1539 H 0.35904 0.71042 0.59145
 H1540 H 0.41271 0.78830 0.63435
 H1541 H 0.38308 0.78797 0.66726
 H1542 H 0.32861 0.71762 0.61453
 H1543 H 0.29957 0.71952 0.64829
 H1544 H 0.34555 0.77275 0.68637
 C1545 C 0.28100 0.08910 0.93259
 C1546 C 0.26291 0.09192 0.91362
 C1547 C 0.24390 0.07367 0.91199
 C1548 C 0.24227 0.05454 0.92967
 C1549 C 0.25991 0.05248 0.94870
 C1550 C 0.27953 0.06957 0.94971
 C1551 C 0.22652 0.07459 0.89280
 C1552 C 0.22771 0.09307 0.87483
 C1553 C 0.24599 0.11193 0.87579
 C1554 C 0.26315 0.11199 0.89612
 C1555 C 0.27943 0.13248 0.89870
 C1556 C 0.27926 0.15203 0.88178
 C1557 C 0.26357 0.15155 0.86114
 C1558 C 0.24719 0.13116 0.85745
 C1559 C 0.23294 0.13072 0.83532
 C1560 C 0.23437 0.15008 0.81812
 C1561 C 0.24973 0.17066 0.82247
 C1562 C 0.26428 0.17133 0.84404
 H1563 H 0.29674 0.10139 0.93443
 H1564 H 0.22731 0.04103 0.92848
 H1565 H 0.29354 0.06815 0.96413
 H1566 H 0.21189 0.06074 0.89154
 H1567 H 0.21337 0.09257 0.86085
 H1568 H 0.29199 0.13439 0.91420
 H1569 H 0.29180 0.16756 0.88474
 H1570 H 0.22098 0.11538 0.83041
 H1571 H 0.22312 0.14909 0.80143
 H1572 H 0.27660 0.18701 0.84722
 C1573 C 0.78536 0.57393 0.40723
 C1574 C 0.76576 0.59142 0.40484
 C1575 C 0.74732 0.59187 0.42369
 C1576 C 0.74754 0.57413 0.44285
 C1577 C 0.76655 0.55634 0.44432
 C1578 C 0.78575 0.55680 0.42676
 C1579 C 0.72862 0.60987 0.42323
 C1580 C 0.72790 0.62772 0.40458
 C1581 C 0.74542 0.62770 0.38502
 C1582 C 0.76392 0.60853 0.38454
 C1583 C 0.77938 0.60655 0.36341
 C1584 C 0.77722 0.62304 0.34365
 C1585 C 0.76030 0.64272 0.34452
 C1586 C 0.74460 0.64577 0.36551
 C1587 C 0.72908 0.66710 0.36628
 C1588 C 0.72887 0.68423 0.34676
 C1589 C 0.74364 0.68043 0.32570
 C1590 C 0.75921 0.65957 0.32459
 H1591 H 0.80085 0.57325 0.39451
 H1592 H 0.73289 0.57417 0.45672
 H1593 H 0.80077 0.54337 0.42772
 H1594 H 0.71444 0.61028 0.43757
 H1595 H 0.71268 0.64078 0.40546
 H1596 H 0.79278 0.59178 0.36117
 H1597 H 0.78922 0.62057 0.32763
 H1598 H 0.71749 0.67150 0.38202
 H1599 H 0.71695 0.70046 0.34804
 H1600 H 0.77110 0.65694 0.30851
 C1601 C 0.71455 0.08458 0.06696
 C1602 C 0.73507 0.09121 0.08207
 C1603 C 0.75737 0.07739 0.07924
 C1604 C 0.75943 0.05908 0.06070
 C1605 C 0.73903 0.05295 0.04552
 C1606 C 0.71647 0.06562 0.04927
 C1607 C 0.77749 0.08180 0.09502
 C1608 C 0.77582 0.09927 0.11398
 C1609 C 0.75421 0.11387 0.11724
 C1610 C 0.73406 0.11072 0.10016
 C1611 C 0.71398 0.12766 0.10120
 C1612 C 0.71336 0.14673 0.11866
 C1613 C 0.73211 0.14903 0.13644
 C1614 C 0.75241 0.13212 0.13652
 C1615 C 0.76985 0.13394 0.15618
 C1616 C 0.76764 0.15240 0.17433
 C1617 C 0.74838 0.16988 0.17320
 C1618 C 0.73065 0.16814 0.15424
 H1619 H 0.69653 0.09322 0.06888
 H1620 H 0.77689 0.04914 0.05859
 H1621 H 0.70020 0.06121 0.03821
 H1622 H 0.79463 0.07135 0.09293
 H1623 H 0.79224 0.10166 0.12524
 H1624 H 0.69887 0.12727 0.08803
 H1625 H 0.69782 0.15962 0.11845
 H1626 H 0.78502 0.12099 0.15840
 H1627 H 0.78137 0.15336 0.18905
 H1628 H 0.71542 0.18140 0.15367
 C1629 C 0.28433 0.56379 0.59262
 C1630 C 0.26393 0.57961 0.59796
 C1631 C 0.24338 0.57914 0.58139
 C1632 C 0.24301 0.56269 0.56110
 C1633 C 0.26330 0.54708 0.55623
 C1634 C 0.28400 0.54795 0.57202
 C1635 C 0.22333 0.59520 0.58502
 C1636 C 0.22351 0.61242 0.60424
 C1637 C 0.24360 0.61384 0.62110
 C1638 C 0.26346 0.59625 0.61876
 C1639 C 0.28191 0.59567 0.63745
 C1640 C 0.28155 0.61235 0.65723
 C1641 C 0.26333 0.63080 0.65874
 C1642 C 0.24433 0.63208 0.64045
 C1643 C 0.22729 0.65213 0.64179
 C1644 C 0.22900 0.66990 0.66056
 C1645 C 0.24737 0.66816 0.67889
 C1646 C 0.26432 0.64837 0.67815
 H1647 H 0.30109 0.56365 0.60362
 H1648 H 0.22704 0.56241 0.54877
 H1649 H 0.29999 0.53614 0.56858
 H1650 H 0.20745 0.59474 0.57260
 H1651 H 0.20720 0.62398 0.60580
 H1652 H 0.29664 0.58204 0.63766
 H1653 H 0.29604 0.61112 0.67120
 H1654 H 0.21300 0.65520 0.62808
 H1655 H 0.21586 0.68522 0.66071
 H1656 H 0.27890 0.64729 0.69205
 C1657 C 0.77388 0.93315 0.90776
 C1658 C 0.75560 0.91441 0.90458
 C1659 C 0.73572 0.91353 0.92191
 C1660 C 0.73344 0.93183 0.94041
 C1661 C 0.75145 0.95047 0.94290
 C1662 C 0.77187 0.95072 0.92678
 C1663 C 0.71827 0.89435 0.92076
 C1664 C 0.72032 0.87566 0.90304
 C1665 C 0.73945 0.87597 0.88505
 C1666 C 0.75660 0.89635 0.88508
 C1667 C 0.77362 0.89845 0.86519
 C1668 C 0.77417 0.88101 0.84614
 C1669 C 0.75853 0.86031 0.84663
 C1670 C 0.74149 0.85702 0.86650
 C1671 C 0.72745 0.83470 0.86711
 C1672 C 0.72956 0.81702 0.84821
 C1673 C 0.74532 0.82118 0.82795
 C1674 C 0.75985 0.84280 0.82730
 H1675 H 0.79026 0.93435 0.89627
 H1676 H 0.71790 0.93127 0.95327
 H1677 H 0.78616 0.96483 0.92865
 H1678 H 0.70300 0.89360 0.93392
 H1679 H 0.70596 0.86165 0.90329
 H1680 H 0.78615 0.91400 0.86328
 H1681 H 0.78721 0.88364 0.83098
 H1682 H 0.71512 0.83010 0.88223
 H1683 H 0.71844 0.80021 0.84918
 H1684 H 0.77256 0.84575 0.81190
 C1685 C 0.28079 0.43540 0.40704
 C1686 C 0.26057 0.41889 0.40338
 C1687 C 0.24099 0.41926 0.42108
 C1688 C 0.24115 0.43650 0.44067
 C1689 C 0.26123 0.45278 0.44385
 C1690 C 0.28113 0.45189 0.42710
 C1691 C 0.22147 0.40227 0.41930
 C1692 C 0.22131 0.38425 0.40082
 C1693 C 0.24034 0.38309 0.38276
 C1694 C 0.25944 0.40162 0.38319
 C1695 C 0.27644 0.40257 0.36318
 C1696 C 0.27539 0.38541 0.34389
 C1697 C 0.25806 0.36609 0.34424
 C1698 C 0.24064 0.36429 0.36399
 C1699 C 0.22473 0.34328 0.36452
 C1700 C 0.22584 0.32520 0.34596
 C1701 C 0.24238 0.32768 0.32606
 C1702 C 0.25832 0.34825 0.32514
 H1703 H 0.29695 0.43552 0.39517
 H1704 H 0.22593 0.43680 0.45391
 H1705 H 0.29695 0.46420 0.42938
 H1706 H 0.20634 0.40260 0.43265
 H1707 H 0.20549 0.37190 0.40067
 H1708 H 0.29035 0.41693 0.36152
 H1709 H 0.28866 0.38699 0.32879
 H1710 H 0.21186 0.33981 0.37949
 H1711 H 0.21360 0.30920 0.34711
 H1712 H 0.27157 0.34985 0.31000
 C1713 C 0.22474 0.90941 0.06398
 C1714 C 0.24176 0.90704 0.08395
 C1715 C 0.25982 0.92607 0.08701
 C1716 C 0.26171 0.94553 0.06972
 C1717 C 0.24511 0.94720 0.04976
 C1718 C 0.22634 0.92931 0.04732
 C1719 C 0.27595 0.92560 0.10728
 C1720 C 0.27429 0.90689 0.12499
 C1721 C 0.25691 0.88732 0.12263
 C1722 C 0.24128 0.88670 0.10113
 C1723 C 0.22629 0.86547 0.09714
 C1724 C 0.22616 0.84573 0.11387
 C1725 C 0.24013 0.84679 0.13568
 C1726 C 0.25514 0.86794 0.14075
 C1727 C 0.26736 0.86905 0.16402
 C1728 C 0.26533 0.84964 0.18109
 C1729 C 0.25149 0.82832 0.17543
 C1730 C 0.23899 0.82692 0.15266
 H1731 H 0.20967 0.89648 0.06105
 H1732 H 0.27598 0.95965 0.07197
 H1733 H 0.21315 0.93041 0.03213
 H1734 H 0.28987 0.94002 0.10965
 H1735 H 0.28764 0.90776 0.13991
 H1736 H 0.21507 0.86314 0.08070
 H1737 H 0.21468 0.82962 0.10985
 H1738 H 0.27801 0.88500 0.16993
 H1739 H 0.27486 0.85118 0.19877
 H1740 H 0.22777 0.81067 0.14851
 C1741 C 0.73818 0.40891 0.55538
 C1742 C 0.75580 0.40569 0.57468
 C1743 C 0.77499 0.42370 0.57695
 C1744 C 0.77710 0.44319 0.55965
 C1745 C 0.75951 0.44599 0.54068
 C1746 C 0.73993 0.42890 0.53887
 C1747 C 0.79180 0.42238 0.59664
 C1748 C 0.78953 0.40404 0.61469
 C1749 C 0.77081 0.38564 0.61324
 C1750 C 0.75463 0.38563 0.59215
 C1751 C 0.73823 0.36532 0.58895
 C1752 C 0.73711 0.34607 0.60619
 C1753 C 0.75150 0.34676 0.62775
 C1754 C 0.76809 0.36689 0.63191
 C1755 C 0.78082 0.36775 0.65493
 C1756 C 0.77766 0.34904 0.67263
 C1757 C 0.76216 0.32866 0.66788
 C1758 C 0.74920 0.32754 0.64535
 H1759 H 0.72237 0.39678 0.55304
 H1760 H 0.79200 0.45671 0.56142
 H1761 H 0.72599 0.43090 0.52445
 H1762 H 0.80661 0.43597 0.59839
 H1763 H 0.80333 0.40426 0.62922
 H1764 H 0.72656 0.36335 0.57278
 H1765 H 0.72446 0.33070 0.60282
 H1766 H 0.79275 0.38302 0.66014
 H1767 H 0.78765 0.35037 0.69008
 H1768 H 0.73675 0.31204 0.64184
 C1769 C 0.09218 0.06289 0.73860
 C1770 C 0.09412 0.08383 0.75447
 C1771 C 0.07502 0.08755 0.77231
 C1772 C 0.05578 0.07002 0.77506
 C1773 C 0.05438 0.04932 0.75932
 C1774 C 0.07249 0.04612 0.74090
 C1775 C 0.07509 0.10885 0.78713
 C1776 C 0.09330 0.12698 0.78418
 C1777 C 0.11284 0.12401 0.76686
 C1778 C 0.11403 0.10143 0.75284
 C1779 C 0.13535 0.09692 0.73815
 C1780 C 0.15451 0.11422 0.73659
 C1781 C 0.15277 0.13708 0.74877
 C1782 C 0.13160 0.14259 0.76355
 C1783 C 0.12982 0.16674 0.77393
 C1784 C 0.14868 0.18424 0.77041
 C1785 C 0.17016 0.17823 0.75693
 C1786 C 0.17207 0.15457 0.74611
 H1787 H 0.10517 0.05937 0.72374
 H1788 H 0.04148 0.07282 0.78902
 H1789 H 0.07159 0.03033 0.72839
 H1790 H 0.06063 0.11177 0.80089
 H1791 H 0.09210 0.14281 0.79644
 H1792 H 0.13819 0.07968 0.72828
 H1793 H 0.17068 0.10981 0.72538
 H1794 H 0.11377 0.17292 0.78424
 H1795 H 0.14650 0.20254 0.77854
 H1796 H 0.18838 0.14993 0.73517
 C1797 C 0.58831 0.56865 0.29399
 C1798 C 0.58955 0.58683 0.27493
 C1799 C 0.57013 0.58713 0.25706
 C1800 C 0.55137 0.56891 0.25746
 C1801 C 0.55076 0.55077 0.27615
 C1802 C 0.56908 0.55109 0.29463
 C1803 C 0.56948 0.60560 0.23888
 C1804 C 0.58746 0.62416 0.23818
 C1805 C 0.60744 0.62449 0.25523
 C1806 C 0.60913 0.60486 0.27315
 C1807 C 0.63068 0.60349 0.28813
 C1808 C 0.64975 0.62086 0.28594
 C1809 C 0.64775 0.64084 0.26947
 C1810 C 0.62621 0.64339 0.25443
 C1811 C 0.62421 0.66500 0.23947
 C1812 C 0.64322 0.68271 0.23884
 C1813 C 0.66499 0.67936 0.25270
 C1814 C 0.66715 0.65839 0.26804
 H1815 H 0.60161 0.56784 0.30896
 H1816 H 0.53691 0.56909 0.24340
 H1817 H 0.56880 0.53741 0.30943
 H1818 H 0.55473 0.60588 0.22513
 H1819 H 0.58570 0.63754 0.22336
 H1820 H 0.63378 0.58858 0.30116
 H1821 H 0.66614 0.61878 0.29750
 H1822 H 0.60793 0.66909 0.22851
 H1823 H 0.64103 0.69897 0.22711
 H1824 H 0.68373 0.65604 0.27930
 C1825 C 0.08898 0.93365 0.27179
 C1826 C 0.09075 0.91435 0.25396
 C1827 C 0.07144 0.91229 0.23610
 C1828 C 0.05211 0.92992 0.23534
 C1829 C 0.05093 0.94907 0.25296
 C1830 C 0.06929 0.95055 0.27133
 C1831 C 0.07140 0.89253 0.21927
 C1832 C 0.08980 0.87435 0.22012
 C1833 C 0.10958 0.87574 0.23735
 C1834 C 0.11073 0.89678 0.25362
 C1835 C 0.13207 0.89990 0.26860
 C1836 C 0.15125 0.88262 0.26839
 C1837 C 0.14964 0.86119 0.25389
 C1838 C 0.12859 0.85711 0.23851
 C1839 C 0.12727 0.83428 0.22535
 C1840 C 0.14634 0.81665 0.22707
 C1841 C 0.16744 0.82135 0.24159
 C1842 C 0.16898 0.84369 0.25487
 H1843 H 0.10210 0.93579 0.28678
 H1844 H 0.03762 0.92839 0.22138
 H1845 H 0.06859 0.96508 0.28529
 H1846 H 0.05676 0.89088 0.20551
 H1847 H 0.08845 0.85976 0.20643
 H1848 H 0.13492 0.91604 0.28015
 H1849 H 0.16740 0.88592 0.28002
 H1850 H 0.11148 0.82919 0.21410
 H1851 H 0.14470 0.79937 0.21680
 H1852 H 0.18507 0.84720 0.26655
 C1853 C 0.56964 0.40686 0.77720
 C1854 C 0.58783 0.40556 0.75820
 C1855 C 0.58891 0.42540 0.74082
 C1856 C 0.57126 0.44473 0.74158
 C1857 C 0.55319 0.44543 0.76032
 C1858 C 0.55280 0.42661 0.77829
 C1859 C 0.60768 0.42595 0.72293
 C1860 C 0.62590 0.40758 0.72228
 C1861 C 0.62545 0.38728 0.73896
 C1862 C 0.60529 0.38556 0.75624
 C1863 C 0.60287 0.36365 0.77053
 C1864 C 0.62007 0.34444 0.76871
 C1865 C 0.64081 0.34664 0.75330
 C1866 C 0.64416 0.36831 0.73859
 C1867 C 0.66643 0.37033 0.72463
 C1868 C 0.68429 0.35141 0.72505
 C1869 C 0.68030 0.32971 0.73888
 C1870 C 0.65845 0.32736 0.75281
 H1871 H 0.56840 0.39329 0.79190
 H1872 H 0.57194 0.45958 0.72794
 H1873 H 0.53911 0.42696 0.79308
 H1874 H 0.60857 0.44100 0.70953
 H1875 H 0.63972 0.40933 0.70786
 H1876 H 0.58731 0.36041 0.78276
 H1877 H 0.61732 0.32784 0.77986
 H1878 H 0.67098 0.38664 0.71387
 H1879 H 0.70124 0.35366 0.71436
 H1880 H 0.65557 0.31079 0.76399
 C1881 C 0.90633 0.06537 0.27248
 C1882 C 0.90352 0.08365 0.25374
 C1883 C 0.92178 0.08463 0.23470
 C1884 C 0.94106 0.06693 0.23381
 C1885 C 0.94333 0.04887 0.25245
 C1886 C 0.92603 0.04846 0.27187
 C1887 C 0.92084 0.10345 0.21685
 C1888 C 0.90259 0.12178 0.21784
 C1889 C 0.88387 0.12145 0.23627
 C1890 C 0.88358 0.10129 0.25363
 C1891 C 0.86310 0.09908 0.26992
 C1892 C 0.84399 0.11647 0.26992
 C1893 C 0.84488 0.13716 0.25431
 C1894 C 0.86507 0.14030 0.23761
 C1895 C 0.86583 0.16247 0.22335
 C1896 C 0.84701 0.18034 0.22528
 C1897 C 0.82668 0.17655 0.24110
 C1898 C 0.82568 0.15487 0.25549
 H1899 H 0.89407 0.06411 0.28829
 H1900 H 0.95474 0.06763 0.21900
 H1901 H 0.92759 0.03480 0.28661
 H1902 H 0.93466 0.10428 0.20219
 H1903 H 0.90316 0.13561 0.20334
 H1904 H 0.86087 0.08356 0.28242
 H1905 H 0.82850 0.11386 0.28258
 H1906 H 0.88103 0.16686 0.21104
 H1907 H 0.84821 0.19707 0.21409
 H1908 H 0.81019 0.15206 0.26812
 C1909 C 0.41383 0.56784 0.78586
 C1910 C 0.41092 0.58560 0.76660
 C1911 C 0.42906 0.58596 0.74745
 C1912 C 0.44814 0.56804 0.74685
 C1913 C 0.45032 0.55022 0.76576
 C1914 C 0.43333 0.55061 0.78546
 C1915 C 0.42809 0.60418 0.72901
 C1916 C 0.40970 0.62240 0.72929
 C1917 C 0.39089 0.62256 0.74761
 C1918 C 0.39087 0.60316 0.76587
 C1919 C 0.37044 0.60150 0.78229
 C1920 C 0.35095 0.61846 0.78129
 C1921 C 0.35138 0.63826 0.76454
 C1922 C 0.37165 0.64104 0.74788
 C1923 C 0.37195 0.66245 0.73246
 C1924 C 0.35259 0.67985 0.73318
 C1925 C 0.33213 0.67629 0.74887
 C1926 C 0.33164 0.65543 0.76448
 H1927 H 0.40167 0.56710 0.80177
 H1928 H 0.46159 0.56818 0.73181
 H1929 H 0.43483 0.53720 0.80043
 H1930 H 0.44187 0.60454 0.71430
 H1931 H 0.41020 0.63565 0.71426
 H1932 H 0.36851 0.58665 0.79563
 H1933 H 0.33546 0.61619 0.79402
 H1934 H 0.38718 0.66662 0.72010
 H1935 H 0.35345 0.69600 0.72114
 H1936 H 0.31608 0.65288 0.77708
 C1937 C 0.93382 0.90927 0.79031
 C1938 C 0.91471 0.90752 0.77223
 C1939 C 0.91313 0.92675 0.75423
 C1940 C 0.93099 0.94577 0.75344
 C1941 C 0.95012 0.94680 0.77103
 C1942 C 0.95110 0.92875 0.78976
 C1943 C 0.89382 0.92691 0.73696
 C1944 C 0.87568 0.90856 0.73729
 C1945 C 0.87660 0.88874 0.75451
 C1946 C 0.89705 0.88757 0.77149
 C1947 C 0.89959 0.86614 0.78652
 C1948 C 0.88261 0.84663 0.78516
 C1949 C 0.86190 0.84811 0.76959
 C1950 C 0.85814 0.86958 0.75469
 C1951 C 0.83584 0.87116 0.74079
 C1952 C 0.81865 0.85176 0.74088
 C1953 C 0.82315 0.83002 0.75448
 C1954 C 0.84479 0.82828 0.76888
 H1955 H 0.93564 0.89613 0.80535
 H1956 H 0.92985 0.96004 0.73921
 H1957 H 0.96562 0.92939 0.80371
 H1958 H 0.89259 0.94152 0.72310
 H1959 H 0.86165 0.90989 0.72305
 H1960 H 0.91513 0.86347 0.79889
 H1961 H 0.88558 0.83031 0.79666
 H1962 H 0.83081 0.88740 0.73015
 H1963 H 0.80184 0.85362 0.72989
 H1964 H 0.84804 0.81170 0.77993
 C1965 C 0.42930 0.40948 0.29434
 C1966 C 0.41201 0.40688 0.27465
 C1967 C 0.41187 0.42552 0.25595
 C1968 C 0.42944 0.44491 0.25629
 C1969 C 0.44670 0.44686 0.27568
 C1970 C 0.44619 0.42924 0.29485
 C1971 C 0.39417 0.42477 0.23703
 C1972 C 0.37618 0.40623 0.23646
 C1973 C 0.37567 0.38708 0.25445
 C1974 C 0.39464 0.38672 0.27310
 C1975 C 0.39602 0.36591 0.28910
 C1976 C 0.37910 0.34640 0.28737
 C1977 C 0.35959 0.34724 0.27029
 C1978 C 0.35719 0.36791 0.25403
 C1979 C 0.33604 0.36877 0.23836
 C1980 C 0.31851 0.34961 0.23844
 C1981 C 0.32162 0.32877 0.25373
 C1982 C 0.34226 0.32762 0.26957
 H1983 H 0.42989 0.39686 0.30990
 H1984 H 0.42943 0.45876 0.24162
 H1985 H 0.45923 0.43050 0.31016
 H1986 H 0.39404 0.43888 0.22261
 H1987 H 0.36336 0.40691 0.22108
 H1988 H 0.41059 0.36373 0.30270
 H1989 H 0.38109 0.33065 0.29982
 H1990 H 0.33209 0.38435 0.22636
 H1991 H 0.30249 0.35100 0.22628
 H1992 H 0.34441 0.31177 0.28187
   
