data_POSCAR
  _audit_creation_date              2014-09-24
  _audit_creation_method            'ToBaCCo'
  _symmetry_space_group_name_H-M    'P1'
  _symmetry_Int_Tables_number       1
  _symmetry_cell_setting            triclinic
  loop_
  _symmetry_equiv_pos_as_xyz
 x,y,z
_cell_length_a 55.8994
_cell_length_b 55.7059
_cell_length_c 55.5860
_cell_angle_alpha 89.778700
_cell_angle_beta 90.312200
_cell_angle_gamma 89.427300
loop_
  _atom_site_label
  _atom_site_type_symbol
  _atom_site_fract_x
  _atom_site_fract_y
  _atom_site_fract_z
C1 C 0.34909 1.38489 0.35093
 C2 C 0.35999 1.39647 0.33148
 C3 C 0.37841 1.38510 0.31839
 C4 C 0.38686 1.36248 0.32649
 C5 C 0.37638 1.35094 0.34616
 C6 C 0.35708 1.36193 0.35816
 C7 C 0.32939 1.39550 0.36226
 C8 C 0.31665 1.38319 0.38026
 C9 C 0.32516 1.36028 0.38768
 C10 C 0.34544 1.34974 0.37699
 C11 C 0.35395 1.32697 0.38433
 C12 C 0.37354 1.31611 0.37263
 C13 C 0.38457 1.32825 0.35356
 H14 H 0.35263 1.41354 0.32549
 H15 H 0.40183 1.35379 0.31767
 H16 H 0.32295 1.41265 0.35549
 H17 H 0.31632 1.35071 0.40206
 H18 H 0.34508 1.31747 0.39876
 H19 H 0.39964 1.31998 0.34447
 C20 C 0.34223 0.86952 0.83667
 C21 C 0.35512 0.87787 0.81680
 C22 C 0.37504 0.86496 0.80819
 C23 C 0.38241 0.84382 0.82003
 C24 C 0.36963 0.83516 0.83984
 C25 C 0.34934 0.84793 0.84805
 C26 C 0.32196 0.88207 0.84486
 C27 C 0.30807 0.87304 0.86398
 C28 C 0.31559 0.85141 0.87520
 C29 C 0.33599 0.83894 0.86744
 C30 C 0.34307 0.81741 0.87867
 C31 C 0.36320 0.80454 0.87058
 C32 C 0.37644 0.81360 0.85117
 H33 H 0.34955 0.89435 0.80785
 H34 H 0.39763 0.83370 0.81333
 H35 H 0.31638 0.89818 0.83531
 H36 H 0.30608 0.84447 0.89061
 H37 H 0.33290 0.81065 0.89375
 H38 H 0.39172 0.80356 0.84451
 C39 C 0.84035 1.37576 0.84005
 C40 C 0.85042 1.38783 0.82049
 C41 C 0.86860 1.37706 0.80660
 C42 C 0.87703 1.35398 0.81346
 C43 C 0.86740 1.34190 0.83335
 C44 C 0.84881 1.35273 0.84658
 C45 C 0.82137 1.38620 0.85268
 C46 C 0.81046 1.37394 0.87172
 C47 C 0.81919 1.35107 0.87850
 C48 C 0.83844 1.34042 0.86612
 C49 C 0.84725 1.31756 0.87266
 C50 C 0.86610 1.30674 0.85975
 C51 C 0.87598 1.31908 0.84008
 H52 H 0.84287 1.40508 0.81531
 H53 H 0.89162 1.34552 0.80382
 H54 H 0.81448 1.40362 0.84709
 H55 H 0.81094 1.34158 0.89330
 H56 H 0.83920 1.30802 0.88754
 H57 H 0.89058 1.31098 0.83012
 C58 C 0.84522 0.88286 0.34613
 C59 C 0.85665 0.89352 0.32655
 C60 C 0.87519 0.88148 0.31421
 C61 C 0.88267 0.85861 0.32276
 C62 C 0.87177 0.84797 0.34285
 C63 C 0.85277 0.86005 0.35437
 C64 C 0.82559 0.89429 0.35688
 C65 C 0.81319 0.88312 0.37566
 C66 C 0.82126 0.86073 0.38437
 C67 C 0.84092 0.84911 0.37382
 C68 C 0.84846 0.82645 0.38199
 C69 C 0.86755 0.81430 0.37085
 C70 C 0.87919 0.82523 0.35130
 H71 H 0.84975 0.91057 0.31999
 H72 H 0.89738 0.84920 0.31423
 H73 H 0.81925 0.91141 0.34989
 H74 H 0.81192 0.85215 0.39907
 H75 H 0.83946 0.81823 0.39711
 H76 H 0.89364 0.81579 0.34235
 C77 C 0.66517 0.63893 0.32925
 C78 C 0.65263 0.62927 0.30973
 C79 C 0.63073 0.63950 0.30176
 C80 C 0.62167 0.65975 0.31404
 C81 C 0.63428 0.66982 0.33334
 C82 C 0.65601 0.65930 0.34112
 C83 C 0.68685 0.62857 0.33694
 C84 C 0.69961 0.63832 0.35636
 C85 C 0.69035 0.65863 0.36821
 C86 C 0.66872 0.66929 0.36060
 C87 C 0.65980 0.69001 0.37184
 C88 C 0.63848 0.70109 0.36370
 C89 C 0.62575 0.69068 0.34456
 H90 H 0.65968 0.61317 0.30139
 H91 H 0.60540 0.66860 0.30790
 H92 H 0.69379 0.61278 0.32789
 H93 H 0.70028 0.66645 0.38299
 H94 H 0.66956 0.69759 0.38686
 H95 H 0.60953 0.69922 0.33785
 C96 C 0.64964 0.11885 0.85272
 C97 C 0.63934 0.10640 0.83339
 C98 C 0.61743 0.11413 0.82329
 C99 C 0.60549 0.13403 0.83319
 C100 C 0.61555 0.14666 0.85238
 C101 C 0.63783 0.13922 0.86205
 C102 C 0.67197 0.11179 0.86223
 C103 C 0.68320 0.12521 0.88061
 C104 C 0.67096 0.14553 0.88972
 C105 C 0.64853 0.15254 0.88062
 C106 C 0.63688 0.17308 0.88945
 C107 C 0.61480 0.18069 0.87972
 C108 C 0.60413 0.16721 0.86136
 H109 H 0.64855 0.09095 0.82591
 H110 H 0.58882 0.14037 0.82525
 H111 H 0.68111 0.09664 0.85415
 H112 H 0.67848 0.15572 0.90443
 H113 H 0.64513 0.18335 0.90374
 H114 H 0.58733 0.17324 0.85346
 C115 C 1.15405 0.62674 0.84188
 C116 C 1.14127 0.61810 0.82205
 C117 C 1.12169 0.63107 0.81254
 C118 C 1.11423 0.65243 0.82376
 C119 C 1.12686 0.66134 0.84367
 C120 C 1.14704 0.64859 0.85253
 C121 C 1.17429 0.61431 0.85056
 C122 C 1.18835 0.62380 0.86936
 C123 C 1.18090 0.64560 0.87998
 C124 C 1.16050 0.65793 0.87175
 C125 C 1.15364 0.67975 0.88221
 C126 C 1.13359 0.69254 0.87359
 C127 C 1.12016 0.68316 0.85438
 H128 H 1.14684 0.60142 0.81367
 H129 H 1.09922 0.66257 0.81641
 H130 H 1.17983 0.59803 0.84147
 H131 H 1.19059 0.65288 0.89518
 H132 H 1.16395 0.68684 0.89711
 H133 H 1.10490 0.69317 0.84738
 C134 C 1.16272 0.12800 0.33631
 C135 C 1.15426 0.11770 0.31499
 C136 C 1.13389 0.12706 0.30296
 C137 C 1.12176 0.14679 0.31339
 C138 C 1.13032 0.15749 0.33454
 C139 C 1.15106 0.14824 0.34591
 C140 C 1.18293 0.11838 0.34794
 C141 C 1.19244 0.12903 0.36887
 C142 C 1.18100 0.14990 0.37787
 C143 C 1.16025 0.15933 0.36673
 C144 C 1.14848 0.17965 0.37607
 C145 C 1.12762 0.18888 0.36494
 C146 C 1.11869 0.17764 0.34420
 H147 H 1.16329 0.10182 0.30825
 H148 H 1.10641 0.15489 0.30444
 H149 H 1.19192 0.10316 0.33977
 H150 H 1.18749 0.15830 0.39415
 H151 H 1.15538 0.18814 0.39216
 H152 H 1.10291 0.18493 0.33528
 C153 C 0.67527 1.36147 0.67089
 C154 C 0.66613 1.37360 0.69109
 C155 C 0.64647 1.36442 0.70382
 C156 C 0.63599 1.34295 0.69607
 C157 C 0.64493 1.33063 0.67608
 C158 C 0.66470 1.33983 0.66347
 C159 C 0.69502 1.37046 0.65825
 C160 C 0.70490 1.35791 0.63845
 C161 C 0.69391 1.33624 0.63136
 C162 C 0.67393 1.32727 0.64355
 C163 C 0.66307 1.30583 0.63616
 C164 C 0.64336 1.29659 0.64870
 C165 C 0.63448 1.30911 0.66868
 H166 H 0.67422 1.39023 0.69687
 H167 H 0.62114 1.33550 0.70598
 H168 H 0.70332 1.38666 0.66480
 H169 H 0.70023 1.32659 0.61573
 H170 H 0.67018 1.29608 0.62090
 H171 H 0.61917 1.30221 0.67829
 C172 C 0.67756 0.85527 1.17013
 C173 C 0.66849 0.86695 1.19039
 C174 C 0.64710 0.85951 1.20140
 C175 C 0.63472 0.83983 1.19121
 C176 C 0.64415 0.82726 1.17128
 C177 C 0.66562 0.83521 1.16073
 C178 C 0.69858 0.86338 1.15921
 C179 C 0.70803 0.85153 1.13909
 C180 C 0.69637 0.83125 1.13008
 C181 C 0.67534 0.82301 1.14080
 C182 C 0.66412 0.80256 1.13197
 C183 C 0.64326 0.79381 1.14267
 C184 C 0.63294 0.80655 1.16201
 H185 H 0.67779 0.88262 1.19694
 H186 H 0.61848 0.83340 1.19948
 H187 H 0.70778 0.87878 1.16654
 H188 H 0.70354 0.82203 1.11452
 H189 H 0.67180 0.79319 1.11674
 H190 H 0.61677 0.79992 1.17027
 C191 C 1.15913 1.36528 1.16113
 C192 C 1.14802 1.37749 1.18029
 C193 C 1.12630 1.36917 1.18984
 C194 C 1.11579 1.34860 1.18016
 C195 C 1.12681 1.33606 1.16148
 C196 C 1.14854 1.34435 1.15188
 C197 C 1.18084 1.37333 1.15141
 C198 C 1.19254 1.36047 1.13282
 C199 C 1.18149 1.33953 1.12393
 C200 C 1.15975 1.33148 1.13324
 C201 C 1.14915 1.31051 1.12434
 C202 C 1.12771 1.30208 1.13419
 C203 C 1.11658 1.31505 1.15262
 H204 H 1.15618 1.39338 1.18779
 H205 H 1.09932 1.34187 1.18776
 H206 H 1.18906 1.38899 1.15927
 H207 H 1.18925 1.32973 1.10906
 H208 H 1.15787 1.30038 1.11020
 H209 H 1.09989 1.30873 1.16008
 C210 C 1.16081 0.87186 0.66031
 C211 C 1.14837 0.88009 0.68061
 C212 C 1.12812 0.86790 0.68906
 C213 C 1.12016 0.84747 0.67674
 C214 C 1.13249 0.83893 0.65653
 C215 C 1.15296 0.85109 0.64836
 C216 C 1.18120 0.88386 0.65209
 C217 C 1.19445 0.87514 0.63230
 C218 C 1.18623 0.85425 0.62058
 C219 C 1.16565 0.84235 0.62833
 C220 C 1.15767 0.82170 0.61643
 C221 C 1.13734 0.80946 0.62450
 C222 C 1.12484 0.81824 0.64457
 H223 H 1.15441 0.89604 0.68986
 H224 H 1.10472 0.83785 0.68327
 H225 H 1.18731 0.89933 0.66205
 H226 H 1.19525 0.84756 0.60473
 H227 H 1.16756 0.81483 0.60116
 H228 H 1.10902 0.80902 0.65077
 C229 C 0.33563 0.63771 0.66148
 C230 C 0.34459 0.62837 0.68335
 C231 C 0.36553 0.63776 0.69372
 C232 C 0.37791 0.65597 0.68170
 C233 C 0.36939 0.66526 0.65986
 C234 C 0.34807 0.65632 0.64977
 C235 C 0.31415 0.62928 0.65143
 C236 C 0.30485 0.63951 0.63007
 C237 C 0.31755 0.65783 0.61850
 C238 C 0.33903 0.66630 0.62817
 C239 C 0.35135 0.68498 0.61683
 C240 C 0.37259 0.69392 0.62688
 C241 C 0.38157 0.68384 0.64830
 H242 H 0.33496 0.61437 0.69266
 H243 H 0.39422 0.66300 0.68950
 H244 H 0.30432 0.61529 0.66054
 H245 H 0.31062 0.66556 0.60190
 H246 H 0.34437 0.69268 0.60025
 H247 H 0.39767 0.69100 0.65639
 C248 C 0.33478 0.13043 1.15694
 C249 C 0.34515 0.12031 1.17774
 C250 C 0.36393 0.13195 1.19017
 C251 C 0.37214 0.15406 1.18088
 C252 C 0.36204 0.16429 1.16003
 C253 C 0.34334 0.15242 1.14801
 C254 C 0.31561 0.11917 1.14514
 C255 C 0.30534 0.12948 1.12433
 C256 C 0.31428 0.15111 1.11535
 C257 C 0.33296 0.16274 1.12716
 C258 C 0.34105 0.18483 1.11866
 C259 C 0.35950 0.19684 1.13061
 C260 C 0.37019 0.18638 1.15111
 H261 H 0.33764 0.10388 1.18472
 H262 H 0.38705 0.16313 1.18923
 H263 H 0.30863 0.10245 1.15210
 H264 H 0.30608 0.15930 1.09956
 H265 H 0.33300 0.19275 1.10266
 H266 H 0.38441 0.19573 1.16039
 C267 C 0.83993 0.62520 1.15014
 C268 C 0.85017 0.61437 1.17061
 C269 C 0.86957 0.62504 1.18258
 C270 C 0.87881 0.64675 1.17367
 C271 C 0.86873 0.65784 1.15322
 C272 C 0.84925 0.64697 1.14138
 C273 C 0.82014 0.61492 1.13862
 C274 C 0.80965 0.62607 1.11836
 C275 C 0.81926 0.64750 1.10952
 C276 C 0.83880 0.65811 1.12101
 C277 C 0.84756 0.68006 1.11281
 C278 C 0.86660 0.69125 1.12470
 C279 C 0.87740 0.67988 1.14469
 H280 H 0.84263 0.59792 1.17758
 H281 H 0.89385 0.65502 1.18267
 H282 H 0.81276 0.59832 1.14545
 H283 H 0.81095 0.65638 1.09418
 H284 H 0.83942 0.68859 1.09717
 H285 H 0.89204 0.68854 1.15400
 C286 C 0.84054 0.13400 0.65729
 C287 C 0.84947 0.12528 0.67942
 C288 C 0.86880 0.13664 0.69112
 C289 C 0.87960 0.15628 0.67960
 C290 C 0.87139 0.16459 0.65729
 C291 C 0.85163 0.15367 0.64613
 C292 C 0.82050 0.12354 0.64637
 C293 C 0.81119 0.13231 0.62424
 C294 C 0.82295 0.15183 0.61314
 C295 C 0.84291 0.16258 0.62395
 C296 C 0.85409 0.18241 0.61316
 C297 C 0.87409 0.19299 0.62416
 C298 C 0.88262 0.18393 0.64613
 H299 H 0.84044 0.11047 0.68806
 H300 H 0.89515 0.16470 0.68751
 H301 H 0.81273 0.10801 0.65496
 H302 H 0.81602 0.15965 0.59663
 H303 H 0.84739 0.18955 0.59622
 H304 H 0.89772 0.19242 0.65486
 C305 C 1.35883 0.33144 0.66835
 C306 C 1.36919 0.34434 0.68731
 C307 C 1.35943 0.36662 0.69483
 C308 C 1.33932 0.37596 0.68234
 C309 C 1.32851 0.36302 0.66375
 C310 C 1.33816 0.34062 0.65688
 C311 C 1.36860 0.30931 0.66091
 C312 C 1.35738 0.29572 0.64269
 C313 C 1.33645 0.30511 0.63180
 C314 C 1.32699 0.32731 0.63861
 C315 C 1.30638 0.33633 0.62733
 C316 C 1.29652 0.35846 0.63421
 C317 C 1.30776 0.37185 0.65233
 H318 H 1.38524 0.33716 0.69577
 H319 H 1.33094 0.39261 0.68798
 H320 H 1.38431 0.30228 0.67013
 H321 H 1.32793 0.29571 0.61709
 H322 H 1.29799 0.32612 0.61307
 H323 H 1.30002 0.38884 0.65792
 C324 C 1.37430 0.84287 1.15986
 C325 C 1.38503 0.85606 1.17833
 C326 C 1.37368 0.87650 1.18786
 C327 C 1.35132 0.88385 1.17846
 C328 C 1.34034 0.87084 1.15987
 C329 C 1.35183 0.85016 1.15068
 C330 C 1.38556 0.82220 1.15086
 C331 C 1.37459 0.80813 1.13290
 C332 C 1.35209 0.81581 1.12380
 C333 C 1.34078 0.83664 1.13247
 C334 C 1.31850 0.84407 1.12321
 C335 C 1.30686 0.86469 1.13211
 C336 C 1.31796 0.87798 1.15050
 H337 H 1.40204 0.85001 1.18575
 H338 H 1.34253 0.89972 1.18556
 H339 H 1.40235 0.81652 1.15895
 H340 H 1.34353 0.80612 1.10931
 H341 H 1.31029 0.83386 1.10886
 H342 H 1.30899 0.89365 1.15781
 C343 C 0.87763 0.34842 1.15409
 C344 C 0.88799 0.36003 1.17394
 C345 C 0.87797 0.38147 1.18286
 C346 C 0.85779 0.39151 1.17146
 C347 C 0.84710 0.37998 1.15191
 C348 C 0.85683 0.35820 1.14331
 C349 C 0.88748 0.32696 1.14524
 C350 C 0.87658 0.31450 1.12600
 C351 C 0.85531 0.32432 1.11585
 C352 C 0.84553 0.34608 1.12421
 C353 C 0.82457 0.35594 1.11385
 C354 C 0.81498 0.37780 1.12230
 C355 C 0.82642 0.38965 1.14130
 H356 H 0.90372 0.35234 1.18261
 H357 H 0.84984 0.40788 1.17844
 H358 H 0.90309 0.31950 1.15427
 H359 H 0.84675 0.31570 1.10069
 H360 H 0.81577 0.34673 1.09916
 H361 H 0.81881 0.40618 1.14828
 C362 C 0.84870 0.81759 0.67944
 C363 C 0.85863 0.83008 0.69893
 C364 C 0.84735 0.85092 0.70786
 C365 C 0.82630 0.85954 0.69670
 C366 C 0.81624 0.84737 0.67716
 C367 C 0.82726 0.82613 0.66875
 C368 C 0.85978 0.79675 0.67035
 C369 C 0.84931 0.78425 0.65110
 C370 C 0.82786 0.79269 0.64090
 C371 C 0.81692 0.81356 0.64942
 C372 C 0.79603 0.82228 0.63846
 C373 C 0.78538 0.84368 0.64629
 C374 C 0.79545 0.85615 0.66574
 H375 H 0.87484 0.82334 0.70747
 H376 H 0.81784 0.87587 0.70315
 H377 H 0.87639 0.79019 0.67823
 H378 H 0.82004 0.78331 0.62575
 H379 H 0.78844 0.81280 0.62326
 H380 H 0.78708 0.87264 0.67191
 C381 C 0.63636 0.66171 0.66909
 C382 C 0.62747 0.65097 0.69009
 C383 C 0.64023 0.63223 0.70154
 C384 C 0.66187 0.62411 0.69161
 C385 C 0.67097 0.63470 0.67076
 C386 C 0.65825 0.65358 0.65939
 C387 C 0.62391 0.68069 0.65787
 C388 C 0.63301 0.69172 0.63707
 C389 C 0.65481 0.68338 0.62743
 C390 C 0.66752 0.66440 0.63846
 C391 C 0.68948 0.65623 0.62913
 C392 C 0.70232 0.63755 0.64065
 C393 C 0.69277 0.62678 0.66130
 H394 H 0.61087 0.65750 0.69779
 H395 H 0.67163 0.60942 0.70012
 H396 H 0.60736 0.68723 0.66565
 H397 H 0.66184 0.69159 0.61127
 H398 H 0.69682 0.66470 0.61325
 H399 H 0.70235 0.61210 0.67002
 C400 C 0.63682 1.16863 1.16390
 C401 C 0.62513 1.16145 1.18490
 C402 C 0.63382 1.14195 1.19849
 C403 C 0.65424 1.12931 1.19073
 C404 C 0.66628 1.13647 1.16986
 C405 C 0.65760 1.15633 1.15646
 C406 C 0.62820 1.18823 1.15053
 C407 C 0.64037 1.19642 1.12994
 C408 C 0.66137 1.18410 1.12285
 C409 C 0.66984 1.16405 1.13579
 C410 C 0.69047 1.15168 1.12843
 C411 C 0.69915 1.13176 1.14154
 C412 C 0.68699 1.12430 1.16230
 H413 H 0.60920 1.17101 1.19072
 H414 H 0.66105 1.11430 1.20128
 H415 H 0.61265 1.19786 1.15714
 H416 H 0.67076 1.18946 1.10674
 H417 H 0.70004 1.15781 1.11268
 H418 H 0.69355 1.10891 1.17245
 C419 C 0.12515 0.65355 1.15644
 C420 C 0.11678 0.64111 1.17661
 C421 C 0.12862 0.62022 1.18523
 C422 C 0.14867 0.61153 1.17249
 C423 C 0.15761 0.62418 1.15267
 C424 C 0.14588 0.64531 1.14470
 C425 C 0.11355 0.67461 1.14840
 C426 C 0.12294 0.68825 1.12924
 C427 C 0.14378 0.67968 1.11772
 C428 C 0.15520 0.65849 1.12530
 C429 C 0.17623 0.65067 1.11410
 C430 C 0.18841 0.63004 1.12231
 C431 C 0.17878 0.61665 1.14139
 H432 H 0.10071 0.64762 1.18535
 H433 H 0.15849 0.59590 1.17893
 H434 H 0.09806 0.68104 1.15816
 H435 H 0.15095 0.68910 1.10232
 H436 H 0.18335 0.66088 1.09917
 H437 H 0.18826 0.60090 1.14809
 C438 C 0.13147 1.15829 0.66193
 C439 C 0.12284 1.14586 0.68196
 C440 C 0.13499 1.12546 0.69126
 C441 C 0.15592 1.11745 0.67943
 C442 C 0.16503 1.13006 0.65960
 C443 C 0.15277 1.15057 0.65084
 C444 C 0.11923 1.17861 0.65309
 C445 C 0.12820 1.19156 0.63345
 C446 C 0.14957 1.18388 0.62255
 C447 C 0.16194 1.16356 0.63117
 C448 C 0.18353 1.15625 0.62066
 C449 C 0.19615 1.13611 0.62953
 C450 C 0.18661 1.12291 0.64881
 H451 H 0.10611 1.15183 0.68978
 H452 H 0.16604 1.10225 0.68640
 H453 H 0.10301 1.18470 0.66186
 H454 H 0.15654 1.19371 0.60729
 H455 H 0.19060 1.16629 0.60558
 H456 H 0.19638 1.10751 0.65589
 C457 C 1.36391 0.67387 0.33571
 C458 C 1.37460 0.66490 0.31480
 C459 C 1.36701 0.64320 0.30424
 C460 C 1.34848 0.63035 0.31574
 C461 C 1.33736 0.63933 0.33657
 C462 C 1.34508 0.66125 0.34646
 C463 C 1.37172 0.69550 0.34585
 C464 C 1.36041 0.70532 0.36629
 C465 C 1.34134 0.69259 0.37662
 C466 C 1.33390 0.67065 0.36708
 C467 C 1.31534 0.65802 0.37794
 C468 C 1.30748 0.63618 0.36842
 C469 C 1.31841 0.62697 0.34757
 H470 H 1.38950 0.67464 0.30732
 H471 H 1.34174 0.61395 0.30796
 H472 H 1.38586 0.70521 0.33694
 H473 H 1.33282 0.69911 0.39282
 H474 H 1.30664 0.66543 0.39369
 H475 H 1.31231 0.61014 0.34011
 C476 C 1.37422 1.15868 0.84185
 C477 C 1.38492 1.14963 0.82105
 C478 C 1.37452 1.13066 0.80841
 C479 C 1.35376 1.11992 0.81742
 C480 C 1.34285 1.12883 0.83833
 C481 C 1.35283 1.14868 0.85033
 C482 C 1.38446 1.17802 0.85383
 C483 C 1.37325 1.18865 0.87382
 C484 C 1.35130 1.17897 0.88184
 C485 C 1.34133 1.15868 0.87055
 C486 C 1.32014 1.14814 0.87906
 C487 C 1.31057 1.12772 0.86767
 C488 C 1.32196 1.11844 0.84717
 H489 H 1.40127 1.15758 0.81445
 H490 H 1.34571 1.10516 0.80775
 H491 H 1.40058 1.18571 0.84643
 H492 H 1.34244 1.18652 0.89739
 H493 H 1.31138 1.15547 0.89479
 H494 H 1.31434 1.10319 0.83791
 C495 C 0.86507 0.66100 0.83526
 C496 C 0.87347 0.64933 0.81464
 C497 C 0.86142 0.62944 0.80513
 C498 C 0.84079 0.62107 0.81683
 C499 C 0.83212 0.63260 0.83757
 C500 C 0.84428 0.65270 0.84677
 C501 C 0.87717 0.68091 0.84447
 C502 C 0.86872 0.69292 0.86496
 C503 C 0.84788 0.68465 0.87633
 C504 C 0.83567 0.66453 0.86745
 C505 C 0.81502 0.65607 0.87890
 C506 C 0.80277 0.63595 0.86998
 C507 C 0.81149 0.62438 0.84923
 H508 H 0.88964 0.65563 0.80608
 H509 H 0.83129 0.60584 0.80957
 H510 H 0.89299 0.68737 0.83540
 H511 H 0.84136 0.69369 0.89227
 H512 H 0.80832 0.66533 0.89463
 H513 H 0.80240 0.60872 0.84235
 C514 C 0.86731 1.16167 0.33552
 C515 C 0.87730 1.14982 0.31563
 C516 C 0.86694 1.12870 0.30638
 C517 C 0.84617 1.11989 0.31744
 C518 C 0.83552 1.13212 0.33661
 C519 C 0.84616 1.15295 0.34593
 C520 C 0.87811 1.18219 0.34506
 C521 C 0.86806 1.19428 0.36482
 C522 C 0.84657 1.18576 0.37479
 C523 C 0.83550 1.16516 0.36545
 C524 C 0.81383 1.15664 0.37499
 C525 C 0.80276 1.13637 0.36494
 C526 C 0.81396 1.12406 0.34611
 H527 H 0.89367 1.15665 0.30795
 H528 H 0.83725 1.10429 0.31022
 H529 H 0.89429 1.18893 0.33690
 H530 H 0.83865 1.19496 0.38997
 H531 H 0.80524 1.16608 0.38967
 H532 H 0.80563 1.10820 0.33868
 C533 C 0.63589 0.33830 0.33661
 C534 C 0.62655 0.35016 0.31629
 C535 C 0.63686 0.37158 0.30761
 C536 C 0.65675 0.38092 0.32009
 C537 C 0.66651 0.36897 0.34016
 C538 C 0.65601 0.34766 0.34854
 C539 C 0.62553 0.31703 0.34503
 C540 C 0.63519 0.30484 0.36511
 C541 C 0.65535 0.31426 0.37684
 C542 C 0.66585 0.33550 0.36864
 C543 C 0.68636 0.34450 0.37992
 C544 C 0.69734 0.36540 0.37125
 C545 C 0.68711 0.37767 0.35152
 H546 H 0.61072 0.34295 0.30777
 H547 H 0.66566 0.39680 0.31349
 H548 H 0.60989 0.30999 0.33599
 H549 H 0.66323 0.30473 0.39202
 H550 H 0.69389 0.33512 0.39536
 H551 H 0.69563 0.39359 0.34448
 C552 C 0.63342 0.83282 0.83935
 C553 C 0.62588 0.84249 0.81715
 C554 C 0.63891 0.86092 0.80595
 C555 C 0.65951 0.86980 0.81740
 C556 C 0.66732 0.86028 0.83949
 C557 C 0.65424 0.84176 0.85052
 C558 C 0.62079 0.81410 0.85040
 C559 C 0.62866 0.80443 0.87255
 C560 C 0.64930 0.81353 0.88351
 C561 C 0.66219 0.83193 0.87261
 C562 C 0.68322 0.84028 0.88328
 C563 C 0.69645 0.85848 0.87228
 C564 C 0.68826 0.86867 0.85054
 H565 H 0.61018 0.83531 0.80833
 H566 H 0.66948 0.88419 0.80911
 H567 H 0.60488 0.80705 0.84186
 H568 H 0.65574 0.80576 0.90028
 H569 H 0.68938 0.83260 0.90020
 H570 H 0.69856 0.88264 0.84193
 C571 C 0.12457 0.33753 0.84278
 C572 C 0.11419 0.34747 0.82195
 C573 C 0.12479 0.36700 0.81013
 C574 C 0.14628 0.37645 0.81933
 C575 C 0.15690 0.36671 0.84025
 C576 C 0.14579 0.34734 0.85211
 C577 C 0.11419 0.31771 0.85421
 C578 C 0.12438 0.30774 0.87537
 C579 C 0.14518 0.31828 0.88486
 C580 C 0.15611 0.33751 0.87316
 C581 C 0.17770 0.34649 0.88187
 C582 C 0.18935 0.36516 0.86988
 C583 C 0.17864 0.37563 0.84933
 H584 H 0.09801 0.33969 0.81466
 H585 H 0.15460 0.39148 0.81034
 H586 H 0.09774 0.31055 0.84691
 H587 H 0.15401 0.31055 0.90052
 H588 H 0.18571 0.33872 0.89797
 H589 H 0.18758 0.39013 0.84007
 C590 C 0.13929 0.83922 0.33819
 C591 C 0.13076 0.84879 0.31619
 C592 C 0.14300 0.86759 0.30436
 C593 C 0.16372 0.87683 0.31542
 C594 C 0.17203 0.86791 0.33749
 C595 C 0.15979 0.84912 0.34897
 C596 C 0.12790 0.81972 0.34944
 C597 C 0.13627 0.81051 0.37181
 C598 C 0.15638 0.82132 0.38252
 C599 C 0.16830 0.84010 0.37116
 C600 C 0.18906 0.84960 0.38148
 C601 C 0.20140 0.86812 0.36996
 C602 C 0.19265 0.87740 0.34811
 H603 H 0.11521 0.84078 0.30788
 H604 H 0.17304 0.89183 0.30747
 H605 H 0.11211 0.81227 0.34105
 H606 H 0.16391 0.81418 0.39909
 H607 H 0.19573 0.84254 0.39848
 H608 H 0.20231 0.89157 0.33906
 O609 O 1.08217 1.02357 1.11859
 O610 O 1.10963 1.02494 1.14718
 C611 C 1.09011 1.03258 1.13796
 C612 C 1.07694 1.05271 1.14939
 C613 C 1.08355 1.06075 1.17238
 H614 H 1.09738 1.05118 1.18234
 O615 O 0.91588 0.97672 1.12114
 O616 O 0.88832 0.97666 1.14936
 C617 C 0.90773 0.96839 1.14073
 C618 C 0.92055 0.94823 1.15289
 C619 C 0.91261 0.93896 1.17503
 H620 H 0.89733 0.94710 1.18384
 O621 O 1.01881 1.12162 1.07979
 O622 O 1.01914 1.15036 1.10697
 C623 C 1.02696 1.14133 1.08755
 C624 C 1.04625 1.15343 1.07423
 C625 C 1.05401 1.17633 1.08111
 H626 H 1.04504 1.18573 1.09557
 O627 O 0.97949 0.87930 1.08634
 O628 O 0.98036 0.85091 1.11411
 C629 C 0.97210 0.85940 1.09451
 C630 C 0.95331 0.84629 1.08137
 C631 C 0.94660 0.82323 1.08876
 H632 H 0.95566 0.81473 1.10388
 O633 O 1.11673 1.08526 1.01994
 O634 O 1.14370 1.11387 1.02037
 C635 C 1.13552 1.09434 1.02884
 C636 C 1.14738 1.08234 1.04971
 C637 C 1.16878 1.09133 1.05951
 H638 H 1.17722 1.10678 1.05140
 O639 O 0.88366 0.91185 1.02456
 O640 O 0.85616 0.88376 1.02532
 C641 C 0.86461 0.90329 1.03332
 C642 C 0.85243 0.91597 1.05328
 C643 C 0.83043 0.90776 1.06207
 H644 H 0.82191 0.89250 1.05373
 O645 O 0.97372 1.08913 1.11448
 O646 O 0.97403 1.11779 1.14175
 C647 C 0.96615 1.09790 1.13409
 C648 C 0.94750 1.08522 1.14780
 C649 C 0.93924 1.09464 1.16956
 H650 H 0.94792 1.11024 1.17705
 O651 O 1.02479 0.91271 1.12007
 O652 O 1.02536 0.88451 1.14805
 C653 C 1.03292 0.90428 1.13978
 C654 C 1.05170 0.91737 1.15292
 C655 C 1.05974 0.90931 1.17549
 H656 H 1.05180 0.89350 1.18342
 O657 O 1.11709 0.97679 1.08767
 O658 O 1.14489 0.97827 1.11591
 C659 C 1.13695 0.96953 1.09637
 C660 C 1.15066 0.95048 1.08375
 C661 C 1.17345 0.94329 1.09190
 H662 H 1.18132 0.95200 1.10740
 O663 O 0.88190 1.02242 1.08698
 O664 O 0.85407 1.02243 1.11494
 C665 C 0.86216 1.03031 1.09513
 C666 C 0.84879 1.04919 1.08164
 C667 C 0.82606 1.05684 1.08932
 H668 H 0.81786 1.04833 1.10472
 O669 O 0.90862 1.11887 1.01932
 O670 O 0.87948 1.14584 1.01881
 C671 C 0.89945 1.13834 1.02702
 C672 C 0.91184 1.15190 1.04623
 C673 C 0.90279 1.17407 1.05423
 H674 H 0.88744 1.18199 1.04514
 O675 O 1.08905 0.88278 1.02331
 O676 O 1.11743 0.85498 1.02355
 C677 C 1.09780 0.86328 1.03157
 C678 C 1.08548 0.85042 1.05117
 C679 C 1.09443 0.82829 1.05953
 H680 H 1.10946 0.81999 1.05046
 O681 O 0.91458 1.02385 1.12003
 O682 O 0.88695 1.02407 1.14817
 C683 C 0.90593 1.03262 1.13920
 C684 C 0.91777 1.05351 1.15046
 C685 C 0.90913 1.06372 1.17192
 H686 H 0.89376 1.05595 1.18066
 O687 O 1.08486 0.97664 1.12119
 O688 O 1.11251 0.97797 1.14957
 C689 C 1.09348 0.96904 1.14107
 C690 C 1.08146 0.94910 1.15381
 C691 C 1.08935 0.94083 1.17653
 H692 H 1.10391 0.94984 1.18559
 O693 O 1.02607 0.88075 1.08654
 O694 O 1.02694 0.85248 1.11444
 C695 C 1.03492 0.86140 1.09503
 C696 C 1.05501 0.84952 1.08243
 C697 C 1.06456 0.82761 1.09091
 H698 H 1.05699 0.81925 1.10671
 O699 O 0.97197 1.12203 1.08145
 O700 O 0.97227 1.15076 1.10860
 C701 C 0.96357 1.14166 1.08960
 C702 C 0.94309 1.15352 1.07707
 C703 C 0.93352 1.17551 1.08518
 H704 H 0.94143 1.18409 1.10070
 O705 O 0.87843 1.08391 1.02085
 O706 O 0.84917 1.11076 1.02036
 C707 C 0.85874 1.09179 1.02907
 C708 C 0.84712 1.07909 1.04929
 C709 C 0.82442 1.08642 1.05724
 H710 H 0.81524 1.10116 1.04825
 O711 O 1.12146 0.91557 1.02344
 O712 O 1.14995 0.88791 1.02379
 C713 C 1.14097 0.90724 1.03202
 C714 C 1.15274 0.91995 1.05224
 C715 C 1.17544 0.91280 1.06086
 H716 H 1.18501 0.89827 1.05212
 O717 O 0.97839 0.91260 1.11887
 O718 O 0.97899 0.88432 1.14676
 C719 C 0.97054 0.90395 1.13841
 C720 C 0.95114 0.91659 1.15138
 C721 C 0.94317 0.90780 1.17354
 H722 H 0.95206 0.89237 1.18161
 O723 O 1.02002 1.08956 1.11380
 O724 O 1.02032 1.11817 1.14112
 C725 C 1.02826 1.09827 1.13320
 C726 C 1.04723 1.08514 1.14674
 C727 C 1.05437 1.09310 1.16959
 H728 H 1.04611 1.10904 1.17710
 O729 O 0.88361 0.97579 1.08779
 O730 O 0.85581 0.97569 1.11580
 C731 C 0.86442 0.96738 1.09636
 C732 C 0.85231 0.94740 1.08391
 C733 C 0.83032 0.93897 1.09232
 H734 H 0.82201 0.94743 1.10773
 O735 O 1.11519 1.02349 1.08621
 O736 O 1.14275 1.02497 1.11469
 C737 C 1.13423 1.03242 1.09473
 C738 C 1.14643 1.05206 1.08177
 C739 C 1.16773 1.06127 1.09111
 H740 H 1.17570 1.05322 1.10706
 O741 O 0.91612 0.87829 1.02325
 O742 O 0.88878 0.85003 1.02378
 C743 C 0.90836 0.85854 1.03146
 C744 C 0.92200 0.84582 1.05060
 C745 C 0.91540 0.82278 1.05831
 H746 H 0.90072 0.81371 1.04951
 O747 O 1.08376 1.11840 1.01803
 O748 O 1.11072 1.14704 1.01781
 C749 C 1.09129 1.13848 1.02560
 C750 C 1.07768 1.15188 1.04395
 C751 C 1.08511 1.17479 1.05100
 H752 H 1.10056 1.18279 1.04258
 Cu753 Cu 1.09698 0.99984 1.10067
 Cu754 Cu 1.13020 1.00171 1.13470
 Cu755 Cu 0.90188 0.99974 1.10131
 Cu756 Cu 0.86856 0.99971 1.13496
 Cu757 Cu 0.99610 1.10283 1.09452
 Cu758 Cu 0.99653 1.13721 1.12729
 Cu759 Cu 1.00210 0.89915 1.10010
 Cu760 Cu 1.00290 0.86517 1.13363
 C761 C 1.05852 1.06484 1.13684
 H762 H 1.05341 1.05885 1.11903
 C763 C 1.07239 1.08097 1.18265
 C764 C 0.93993 0.93695 1.14133
 H765 H 0.94589 0.94363 1.12406
 C766 C 0.92382 0.91864 1.18543
 C767 C 1.05804 1.14145 1.05543
 H768 H 1.05247 1.12361 1.05031
 C769 C 1.07345 1.18712 1.06955
 C770 C 0.94113 0.85730 1.06209
 H771 H 0.94606 0.87524 1.05653
 C772 C 0.92769 0.81133 1.07735
 C773 C 1.13644 1.06256 1.06094
 H774 H 1.11976 1.05573 1.05387
 C775 C 1.17888 1.08095 1.08035
 C776 C 0.86314 0.93593 1.06422
 H777 H 0.88025 0.94218 1.05779
 C778 C 0.81925 0.91921 1.08154
 C779 C 0.93697 1.06445 1.13860
 H780 H 0.94330 1.05719 1.12171
 C781 C 0.91976 1.08444 1.18158
 C782 C 1.06245 0.93739 1.14239
 H783 H 1.05644 0.94341 1.12480
 C784 C 1.07842 0.92094 1.18760
 C785 C 1.14063 0.93889 1.06376
 H786 H 1.12298 0.94426 1.05749
 C787 C 1.18601 0.92453 1.08057
 C788 C 0.85908 1.06030 1.06147
 H789 H 0.87673 1.05474 1.05562
 C790 C 0.81374 1.07540 1.07718
 C791 C 0.93216 1.14201 1.05753
 H792 H 0.93909 1.12484 1.05152
 C793 C 0.91332 1.18604 1.07385
 C794 C 1.06556 0.86074 1.06251
 H795 H 1.05868 0.87791 1.05623
 C796 C 1.08434 0.81686 1.07957
 O797 O 1.08689 0.97673 0.87903
 O798 O 1.11400 0.97673 0.85038
 C799 C 1.09501 0.96830 0.85948
 C800 C 1.08286 0.94791 0.84757
 C801 C 1.09227 0.93837 0.82629
 H802 H 1.10755 0.94680 0.81797
 O803 O 0.91113 1.01925 0.87783
 O804 O 0.88282 1.01840 0.85006
 C805 C 0.90220 1.02696 0.85821
 C806 C 0.91429 1.04642 0.84508
 C807 C 0.90595 1.05396 0.82244
 H808 H 0.89059 1.04525 0.81452
 O809 O 0.97042 1.11691 0.90875
 O810 O 0.96995 1.14480 0.88049
 C811 C 0.96188 1.13637 0.90006
 C812 C 0.94209 1.14894 0.91273
 C813 C 0.93399 1.17188 0.90539
 H814 H 0.94270 1.18096 0.89061
 O815 O 1.02399 0.88100 0.91376
 O816 O 1.02475 0.85214 0.88672
 C817 C 1.03248 0.86125 0.90617
 C818 C 1.05190 0.84895 0.91975
 C819 C 1.05870 0.82549 0.91370
 H820 H 1.04934 0.81625 0.89941
 O821 O 1.12129 0.91580 0.97623
 O822 O 1.14947 0.88784 0.97651
 C823 C 1.14073 0.90724 0.96801
 C824 C 1.15281 0.91933 0.94771
 C825 C 1.17409 0.90973 0.93842
 H826 H 1.18253 0.89452 0.94735
 O827 O 0.87670 1.08335 0.97386
 O828 O 0.84745 1.11021 0.97338
 C829 C 0.85666 1.09079 0.96570
 C830 C 0.84430 1.07698 0.94667
 C831 C 0.82068 1.08275 0.93981
 H832 H 0.81105 1.09668 0.94938
 O833 O 1.01835 1.08388 0.87721
 O834 O 1.01770 1.11167 0.84885
 C835 C 1.02651 1.09243 0.85771
 C836 C 1.04709 1.08057 0.84568
 C837 C 1.05587 1.08992 0.82402
 H838 H 1.04634 1.10459 0.81530
 O839 O 0.97720 0.91218 0.87866
 O840 O 0.97832 0.88371 0.85122
 C841 C 0.96941 0.90315 0.85923
 C842 C 0.94908 0.91485 0.84648
 C843 C 0.94018 0.90532 0.82492
 H844 H 0.94886 0.88977 0.81705
 O845 O 1.12066 1.02416 0.90975
 O846 O 1.14800 1.02410 0.88132
 C847 C 1.13989 1.03239 0.90092
 C848 C 1.15221 1.05231 0.91344
 C849 C 1.17351 1.06236 0.90453
 H850 H 1.18175 1.05501 0.88854
 O851 O 0.88027 0.97292 0.91232
 O852 O 0.85173 0.97208 0.88478
 C853 C 0.86066 0.96462 0.90454
 C854 C 0.84824 0.94597 0.91848
 C855 C 0.82520 0.93882 0.91182
 H856 H 0.81644 0.94720 0.89647
 O857 O 1.08385 1.11629 0.97141
 O858 O 1.11067 1.14506 0.97118
 C859 C 1.09151 1.13594 0.96294
 C860 C 1.07800 1.14806 0.94319
 C861 C 1.08572 1.17011 0.93370
 H862 H 1.10174 1.17830 0.94080
 O863 O 0.91540 0.87980 0.97632
 O864 O 0.88774 0.85185 0.97676
 C865 C 0.90680 0.86051 0.96799
 C866 C 0.91856 0.84840 0.94742
 C867 C 0.90850 0.82767 0.93755
 H868 H 0.89284 0.81992 0.94580
 O869 O 0.91178 0.97252 0.87822
 O870 O 0.88341 0.97153 0.85053
 C871 C 0.90325 0.96386 0.85891
 C872 C 0.91638 0.94430 0.84649
 C873 C 0.90767 0.93449 0.82492
 H874 H 0.89163 0.94194 0.81666
 O875 O 1.08588 1.02371 0.87864
 O876 O 1.11305 1.02386 0.85004
 C877 C 1.09364 1.03195 0.85888
 C878 C 1.08020 1.05149 0.84641
 C879 C 1.08902 1.06159 0.82503
 H880 H 1.10566 1.05492 0.81763
 O881 O 0.97720 0.87951 0.91183
 O882 O 0.97796 0.85099 0.88444
 C883 C 0.96921 0.85987 0.90354
 C884 C 0.94900 0.84783 0.91588
 C885 C 0.93857 0.82696 0.90627
 H886 H 0.94575 0.81901 0.89005
 O887 O 1.01726 1.11613 0.91041
 O888 O 1.01677 1.14400 0.88212
 C889 C 1.02521 1.13556 0.90174
 C890 C 1.04511 1.14803 0.91394
 C891 C 1.05279 1.17022 0.90517
 H892 H 1.04289 1.17890 0.89070
 O893 O 0.88134 0.91151 0.97765
 O894 O 0.85357 0.88365 0.97844
 C895 C 0.86163 0.90317 0.97002
 C896 C 0.84849 0.91600 0.95063
 C897 C 0.82538 0.90898 0.94367
 H898 H 0.81655 0.89465 0.95328
 O899 O 1.11894 1.08561 0.97277
 O900 O 1.14591 1.11421 0.97315
 C901 C 1.13822 1.09456 0.96486
 C902 C 1.15125 1.08259 0.94509
 C903 C 1.17242 1.09237 0.93605
 H904 H 1.18011 1.10791 0.94471
 O905 O 1.02405 0.91244 0.87922
 O906 O 1.02528 0.88379 0.85200
 C907 C 1.03292 0.90361 0.86014
 C908 C 1.05277 0.91619 0.84778
 C909 C 1.06264 0.90691 0.82641
 H910 H 1.05538 0.89078 0.81851
 O911 O 0.97165 1.08310 0.87663
 O912 O 0.97103 1.11083 0.84822
 C913 C 0.96344 1.09118 0.85682
 C914 C 0.94439 1.07781 0.84421
 C915 C 0.93611 1.08494 0.82133
 H916 H 0.94469 1.09968 0.81216
 O917 O 0.87875 1.01946 0.91085
 O918 O 0.85027 1.01857 0.88325
 C919 C 0.85882 1.02708 0.90261
 C920 C 0.84554 1.04609 0.91562
 C921 C 0.82207 1.05232 0.90880
 H922 H 0.81378 1.04319 0.89379
 O923 O 1.12033 0.97744 0.91128
 O924 O 1.14763 0.97708 0.88279
 C925 C 1.13962 0.96905 0.90260
 C926 C 1.15229 0.94925 0.91542
 C927 C 1.17342 0.93907 0.90610
 H928 H 1.18089 0.94608 0.88960
 O929 O 1.08894 0.88267 0.97658
 O930 O 1.11700 0.85455 0.97686
 C931 C 1.09728 0.86291 0.96875
 C932 C 1.08390 0.84975 0.94993
 C933 C 1.09059 0.82625 0.94342
 H934 H 1.10547 0.81739 0.95248
 O935 O 0.90860 1.11678 0.97249
 O936 O 0.87956 1.14387 0.97194
 C937 C 0.89931 1.13586 0.96386
 C938 C 0.91152 1.14859 0.94404
 C939 C 0.90377 1.17148 0.93659
 H940 H 0.88881 1.18000 0.94558
 Cu941 Cu 1.10078 1.00062 0.89754
 Cu942 Cu 1.13332 1.00042 0.86320
 Cu943 Cu 0.89840 0.99609 0.89753
 Cu944 Cu 0.86422 0.99503 0.86432
 Cu945 Cu 1.09825 1.09842 0.99556
 Cu946 Cu 1.13052 1.13282 0.99564
 Cu947 Cu 1.10244 0.90208 0.99983
 Cu948 Cu 1.13639 0.86860 1.00014
 Cu949 Cu 0.89599 1.09804 0.99666
 Cu950 Cu 0.86096 1.13034 0.99605
 Cu951 Cu 0.90187 0.89817 1.00044
 Cu952 Cu 0.86883 0.86448 1.00117
 Cu953 Cu 0.99430 1.09723 0.89608
 Cu954 Cu 0.99380 1.13063 0.86210
 Cu955 Cu 1.00052 0.89914 0.89856
 Cu956 Cu 1.00179 0.86481 0.86585
 C957 C 1.06296 0.93682 0.85811
 H958 H 1.05585 0.94384 0.87478
 C959 C 1.08256 0.91778 0.81573
 C960 C 0.93358 1.05831 0.85573
 H961 H 0.93974 1.05282 0.87344
 C962 C 0.91681 1.07309 0.81027
 C963 C 0.93080 1.13760 0.93216
 H964 H 0.93674 1.11986 0.93776
 C965 C 0.91498 1.18341 0.91743
 C966 C 1.06438 0.86087 0.93809
 H967 H 1.05929 0.87908 0.94271
 C968 C 1.07788 0.81395 0.92548
 C969 C 1.14222 0.93930 0.93630
 H970 H 1.12562 0.94660 0.94324
 C971 C 1.18435 0.91913 0.91742
 C972 C 0.85645 1.05841 0.93467
 H973 H 0.87469 1.05394 0.93976
 C974 C 0.80935 1.07048 0.92089
 C975 C 1.05920 1.06112 0.85659
 H976 H 1.05264 1.05393 0.87341
 C977 C 1.07705 1.08093 0.81375
 C978 C 0.93724 0.93451 0.85694
 H979 H 0.94383 0.94170 0.87377
 C980 C 0.91946 0.91496 0.81401
 C981 C 1.14151 1.06244 0.93387
 H982 H 1.12495 1.05513 0.94062
 C983 C 1.18363 1.08258 0.91572
 C984 C 0.85964 0.93469 0.93808
 H985 H 0.87758 0.93997 0.94308
 C986 C 0.81357 0.92044 0.92434
 C987 C 1.05763 1.13718 0.93316
 H988 H 1.05186 1.11993 0.93990
 C989 C 1.07322 1.18125 0.91459
 C990 C 0.93889 0.85826 0.93657
 H991 H 0.94649 0.87450 0.94389
 C992 C 0.91810 0.81697 0.91688
 O993 O 0.97697 0.41364 0.37996
 O994 O 0.97663 0.38598 0.35170
 C995 C 0.96883 0.40570 0.36021
 C996 C 0.94964 0.41904 0.34723
 C997 C 0.94112 0.41038 0.32521
 H998 H 0.94938 0.39464 0.31727
 O999 O 1.02474 0.58733 0.37853
 O1000 O 1.02523 0.61501 0.35007
 C1001 C 1.03295 0.59527 0.35884
 C1002 C 1.05222 0.58196 0.34635
 C1003 C 1.06055 0.59029 0.32417
 H1004 H 1.05149 0.60531 0.31553
 O1005 O 0.88264 0.48193 0.40930
 O1006 O 0.85452 0.48221 0.38132
 C1007 C 0.86285 0.47432 0.40117
 C1008 C 0.84969 0.45582 0.41477
 C1009 C 0.82674 0.44876 0.40739
 H1010 H 0.81839 0.45719 0.39185
 O1011 O 1.12028 0.52326 0.41204
 O1012 O 1.14776 0.52218 0.38375
 C1013 C 1.13960 0.53102 0.40312
 C1014 C 1.15233 0.55110 0.41480
 C1015 C 1.17347 0.55990 0.40475
 H1016 H 1.18113 0.55113 0.38918
 O1017 O 0.91166 0.38503 0.47440
 O1018 O 0.88301 0.35812 0.47453
 C1019 C 0.90260 0.36583 0.46618
 C1020 C 0.91454 0.35263 0.44631
 C1021 C 0.90436 0.33164 0.43702
 H1022 H 0.88834 0.32452 0.44516
 O1023 O 1.08992 0.62171 0.47314
 O1024 O 1.11795 0.64925 0.47300
 C1025 C 1.09845 0.64102 0.46468
 C1026 C 1.08578 0.65335 0.44448
 C1027 C 1.09440 0.67491 0.43453
 H1028 H 1.11029 0.68305 0.44201
 O1029 O 0.91587 0.52714 0.37521
 O1030 O 0.88793 0.52758 0.34706
 C1031 C 0.90742 0.53550 0.35560
 C1032 C 0.92002 0.55530 0.34330
 C1033 C 0.91147 0.56481 0.32135
 H1034 H 0.89597 0.55701 0.31273
 O1035 O 1.08652 0.47604 0.38074
 O1036 O 1.11411 0.47525 0.35255
 C1037 C 1.09480 0.46731 0.36140
 C1038 C 1.08248 0.44720 0.34929
 C1039 C 1.09187 0.43793 0.32791
 H1040 H 1.10736 0.44619 0.31981
 O1041 O 1.02261 0.37806 0.41252
 O1042 O 1.02226 0.35027 0.38440
 C1043 C 1.03064 0.35845 0.40396
 C1044 C 1.05066 0.34586 0.41649
 C1045 C 1.06081 0.32455 0.40729
 H1046 H 1.05329 0.31645 0.39129
 O1047 O 0.97904 0.62258 0.41040
 O1048 O 0.97968 0.65041 0.38209
 C1049 C 0.97143 0.64238 0.40175
 C1050 C 0.95246 0.65588 0.41450
 C1051 C 0.94543 0.67893 0.40684
 H1052 H 0.95431 0.68716 0.39167
 O1053 O 0.88489 0.59145 0.47256
 O1054 O 0.85709 0.61982 0.47237
 C1055 C 0.86551 0.60021 0.46419
 C1056 C 0.85283 0.58768 0.44447
 C1057 C 0.83012 0.59562 0.43690
 H1058 H 0.82175 0.61081 0.44574
 O1059 O 1.11754 0.41220 0.47431
 O1060 O 1.14580 0.38428 0.47549
 C1061 C 1.13730 0.40369 0.46681
 C1062 C 1.15043 0.41621 0.44758
 C1063 C 1.17287 0.40764 0.44029
 H1064 H 1.18096 0.39244 0.44956
 O1065 O 0.97814 0.58981 0.37727
 O1066 O 0.97881 0.61766 0.34898
 C1067 C 0.97026 0.59843 0.35750
 C1068 C 0.95061 0.58629 0.34455
 C1069 C 0.94182 0.59559 0.32268
 H1070 H 0.95014 0.61118 0.31473
 O1071 O 1.02360 0.41184 0.38038
 O1072 O 1.02340 0.38423 0.35207
 C1073 C 1.03187 0.40345 0.36086
 C1074 C 1.05194 0.41593 0.34875
 C1075 C 1.06166 0.40704 0.32714
 H1076 H 1.05412 0.39130 0.31872
 O1077 O 1.12087 0.47629 0.41211
 O1078 O 1.14854 0.47524 0.38401
 C1079 C 1.14014 0.46748 0.40371
 C1080 C 1.15219 0.44744 0.41672
 C1081 C 1.17467 0.43847 0.40947
 H1082 H 1.18380 0.44667 0.39445
 O1083 O 0.88394 0.52852 0.40861
 O1084 O 0.85573 0.52895 0.38072
 C1085 C 0.86449 0.53711 0.40018
 C1086 C 0.85228 0.55702 0.41305
 C1087 C 0.82954 0.56531 0.40570
 H1088 H 0.82046 0.55669 0.39084
 O1089 O 0.91684 0.62481 0.47309
 O1090 O 0.88924 0.65337 0.47305
 C1091 C 0.90862 0.64461 0.46494
 C1092 C 0.92157 0.65705 0.44539
 C1093 C 0.91462 0.68011 0.43743
 H1094 H 0.90006 0.68947 0.44626
 O1095 O 1.08514 0.37918 0.47490
 O1096 O 1.11343 0.35131 0.47590
 C1097 C 1.09391 0.35954 0.46727
 C1098 C 1.08172 0.34665 0.44756
 C1099 C 1.09155 0.32541 0.43826
 H1100 H 1.10741 0.31761 0.44656
 O1101 O 1.08779 0.52300 0.37863
 O1102 O 1.11523 0.52218 0.35029
 C1103 C 1.09601 0.53088 0.35887
 C1104 C 1.08336 0.55084 0.34627
 C1105 C 1.09190 0.55996 0.32429
 H1106 H 1.10770 0.55207 0.31621
 O1107 O 0.91564 0.48016 0.37671
 O1108 O 0.88777 0.48033 0.34850
 C1109 C 0.90707 0.47170 0.35735
 C1110 C 0.91941 0.45116 0.34557
 C1111 C 0.91115 0.44209 0.32344
 H1112 H 0.89600 0.45051 0.31442
 O1113 O 1.02576 0.62125 0.41038
 O1114 O 1.02617 0.64889 0.38188
 C1115 C 1.03426 0.64045 0.40158
 C1116 C 1.05419 0.65283 0.41386
 C1117 C 1.06279 0.67447 0.40450
 H1118 H 1.05376 0.68272 0.38925
 O1119 O 0.97569 0.38017 0.41232
 O1120 O 0.97502 0.35236 0.38424
 C1121 C 0.96674 0.36120 0.40360
 C1122 C 0.94592 0.35004 0.41577
 C1123 C 0.93538 0.32897 0.40676
 H1124 H 0.94296 0.32020 0.39116
 O1125 O 1.12221 0.58807 0.47333
 O1126 O 1.15051 0.61534 0.47309
 C1127 C 1.14169 0.59604 0.46493
 C1128 C 1.15357 0.58300 0.44493
 C1129 C 1.17481 0.59155 0.43455
 H1130 H 1.18317 0.60751 0.44165
 O1131 O 0.88081 0.42025 0.47474
 O1132 O 0.85215 0.39333 0.47484
 C1133 C 0.86109 0.41256 0.46659
 C1134 C 0.84882 0.42572 0.44685
 C1135 C 0.82594 0.41889 0.43920
 H1136 H 0.81674 0.40461 0.44854
 Cu1137 Cu 0.99981 0.39856 0.39920
 Cu1138 Cu 0.99925 0.36542 0.36530
 Cu1139 Cu 1.00179 0.60247 0.39703
 Cu1140 Cu 1.00256 0.63576 0.36290
 Cu1141 Cu 0.90238 0.50437 0.39517
 Cu1142 Cu 0.86873 0.50475 0.36151
 Cu1143 Cu 1.10113 0.49976 0.39872
 Cu1144 Cu 1.13414 0.49862 0.36479
 C1145 C 0.93882 0.43957 0.35721
 H1146 H 0.94509 0.44611 0.37443
 C1147 C 0.92184 0.42156 0.31332
 C1148 C 1.06348 0.56200 0.35712
 H1149 H 1.05721 0.55562 0.37438
 C1150 C 1.08066 0.57986 0.31320
 C1151 C 0.86046 0.44436 0.43468
 H1152 H 0.87829 0.44947 0.44026
 C1153 C 0.81479 0.43028 0.41949
 C1154 C 1.14264 0.56262 0.43499
 H1155 H 1.12609 0.55610 0.44255
 C1156 C 1.18474 0.58018 0.41429
 C1157 C 0.93541 0.36155 0.43567
 H1158 H 0.94310 0.37795 0.44253
 C1159 C 0.91446 0.31974 0.41720
 C1160 C 1.06559 0.64256 0.43400
 H1161 H 1.05911 0.62571 0.44109
 C1162 C 1.08303 0.68552 0.41437
 C1163 C 0.93975 0.56602 0.35457
 H1164 H 0.94622 0.55904 0.37164
 C1165 C 0.92222 0.58507 0.31100
 C1166 C 1.06242 0.43618 0.35956
 H1167 H 1.05538 0.44300 0.37634
 C1168 C 1.08180 0.41787 0.31685
 C1169 C 1.06113 0.35652 0.43678
 H1170 H 1.05373 0.37314 0.44371
 C1171 C 1.08142 0.31432 0.41802
 C1172 C 0.94063 0.64525 0.43392
 H1173 H 0.94585 0.62735 0.43971
 C1174 C 0.92662 0.69127 0.41824
 C1175 C 0.86368 0.56823 0.43259
 H1176 H 0.88131 0.56216 0.43823
 C1177 C 0.81827 0.58452 0.41765
 C1178 C 1.14034 0.43623 0.43590
 H1179 H 1.12287 0.44271 0.44136
 C1180 C 1.18509 0.41845 0.42120
 O1181 O 1.02427 0.41444 0.61826
 O1182 O 1.02395 0.38661 0.64657
 C1183 C 1.03253 0.40582 0.63785
 C1184 C 1.05279 0.41798 0.65002
 C1185 C 1.06262 0.40890 0.67165
 H1186 H 1.05492 0.39321 0.68005
 O1187 O 0.97912 0.58966 0.61749
 O1188 O 0.97938 0.61796 0.64512
 C1189 C 0.97079 0.59866 0.63673
 C1190 C 0.95043 0.58698 0.64904
 C1191 C 0.94094 0.59674 0.67029
 H1192 H 0.94934 0.61221 0.67837
 O1193 O 0.88276 0.52818 0.58403
 O1194 O 0.85475 0.52926 0.61179
 C1195 C 0.86340 0.53700 0.59213
 C1196 C 0.85125 0.55683 0.57880
 C1197 C 0.82891 0.56575 0.58634
 H1198 H 0.82006 0.55761 0.60157
 O1199 O 1.11816 0.47875 0.58348
 O1200 O 1.14681 0.47776 0.61095
 C1201 C 1.13789 0.47032 0.59130
 C1202 C 1.15035 0.45123 0.57784
 C1203 C 1.17347 0.44401 0.58473
 H1204 H 1.18247 0.45301 0.59942
 O1205 O 1.08508 0.38032 0.52187
 O1206 O 1.11343 0.35251 0.52281
 C1207 C 1.09389 0.36110 0.53070
 C1208 C 1.08179 0.34900 0.55088
 C1209 C 1.09157 0.32791 0.56083
 H1210 H 1.10731 0.31979 0.55284
 O1211 O 0.91737 0.62358 0.52003
 O1212 O 0.88960 0.65198 0.52013
 C1213 C 0.90899 0.64307 0.52844
 C1214 C 0.92167 0.65506 0.54849
 C1215 C 0.91252 0.67636 0.55856
 H1216 H 0.89634 0.68456 0.55134
 O1217 O 0.91480 0.48101 0.61797
 O1218 O 0.88702 0.48170 0.64596
 C1219 C 0.90630 0.47293 0.63749
 C1220 C 0.91864 0.45258 0.64985
 C1221 C 0.90942 0.44269 0.67120
 H1222 H 0.89348 0.45038 0.67920
 O1223 O 1.08674 0.52465 0.61859
 O1224 O 1.11521 0.52361 0.64620
 C1225 C 1.09560 0.53221 0.63819
 C1226 C 1.08337 0.55182 0.65120
 C1227 C 1.09234 0.56023 0.67317
 H1228 H 1.10756 0.55124 0.68148
 O1229 O 0.97671 0.38306 0.58539
 O1230 O 0.97604 0.35498 0.61343
 C1231 C 0.96798 0.36384 0.59384
 C1232 C 0.94778 0.35226 0.58100
 C1233 C 0.93795 0.33061 0.58939
 H1234 H 0.94556 0.32171 0.60506
 O1235 O 1.02737 0.62037 0.58476
 O1236 O 1.02755 0.64860 0.61245
 C1237 C 1.03584 0.63973 0.59313
 C1238 C 1.05591 0.65181 0.58074
 C1239 C 1.06552 0.67291 0.59034
 H1240 H 1.05747 0.68088 0.60613
 O1241 O 0.87957 0.41850 0.52188
 O1242 O 0.85107 0.39142 0.52182
 C1243 C 0.86000 0.41051 0.53023
 C1244 C 0.84801 0.42313 0.55043
 C1245 C 0.82616 0.41487 0.55978
 H1246 H 0.81732 0.39989 0.55129
 O1247 O 1.12210 0.58792 0.52030
 O1248 O 1.15057 0.61503 0.52043
 C1249 C 1.14164 0.59581 0.52876
 C1250 C 1.15352 0.58280 0.54898
 C1251 C 1.17608 0.58987 0.55764
 H1252 H 1.18541 0.60438 0.54884
 O1253 O 1.02581 0.58847 0.61887
 O1254 O 1.02607 0.61668 0.64659
 C1255 C 1.03387 0.59684 0.63850
 C1256 C 1.05310 0.58364 0.65142
 C1257 C 1.06233 0.59200 0.67338
 H1258 H 1.05476 0.60797 0.68152
 O1259 O 0.97758 0.41649 0.61760
 O1260 O 0.97711 0.38857 0.64582
 C1261 C 0.96926 0.40830 0.63715
 C1262 C 0.94963 0.42123 0.64952
 C1263 C 0.94037 0.41192 0.67091
 H1264 H 0.94875 0.39626 0.67909
 O1265 O 1.11900 0.52541 0.58509
 O1266 O 1.14745 0.52420 0.61273
 C1267 C 1.13881 0.53293 0.59337
 C1268 C 1.15188 0.55215 0.58058
 C1269 C 1.17444 0.55944 0.58888
 H1270 H 1.18230 0.55082 0.60458
 O1271 O 0.88151 0.48130 0.58540
 O1272 O 0.85363 0.48232 0.61328
 C1273 C 0.86196 0.47361 0.59395
 C1274 C 0.84913 0.45392 0.58162
 C1275 C 0.82747 0.44529 0.59081
 H1276 H 0.82008 0.45336 0.60686
 O1277 O 1.08981 0.62128 0.52023
 O1278 O 1.11798 0.64870 0.52051
 C1279 C 1.09857 0.64039 0.52883
 C1280 C 1.08647 0.65242 0.54931
 C1281 C 1.09586 0.67352 0.55936
 H1282 H 1.11166 0.68153 0.55164
 O1283 O 0.91347 0.38639 0.52145
 O1284 O 0.88498 0.35929 0.52149
 C1285 C 0.90468 0.36716 0.52970
 C1286 C 0.91699 0.35414 0.54953
 C1287 C 0.90755 0.33262 0.55815
 H1288 H 0.89203 0.32497 0.54942
 O1289 O 1.08678 0.47773 0.61756
 O1290 O 1.11537 0.47678 0.64505
 C1291 C 1.09577 0.46887 0.63673
 C1292 C 1.08372 0.44878 0.64921
 C1293 C 1.09329 0.43938 0.67070
 H1294 H 1.10892 0.44755 0.67870
 O1295 O 0.91489 0.52802 0.61779
 O1296 O 0.88705 0.52889 0.64572
 C1297 C 0.90650 0.53672 0.63714
 C1298 C 0.91906 0.55667 0.64930
 C1299 C 0.90981 0.56676 0.67051
 H1300 H 0.89372 0.55949 0.67833
 O1301 O 0.98071 0.62181 0.58375
 O1302 O 0.98097 0.65013 0.61137
 C1303 C 0.97288 0.64166 0.59179
 C1304 C 0.95343 0.65455 0.57893
 C1305 C 0.94444 0.67613 0.58822
 H1306 H 0.95260 0.68397 0.60405
 O1307 O 1.02341 0.38149 0.58560
 O1308 O 1.02297 0.35353 0.61378
 C1309 C 1.03133 0.36181 0.59428
 C1310 C 1.05112 0.34908 0.58199
 C1311 C 1.06114 0.32786 0.59171
 H1312 H 1.05373 0.32004 0.60788
 O1313 O 1.11714 0.41359 0.52093
 O1314 O 1.14553 0.38580 0.52190
 C1315 C 1.13687 0.40561 0.52926
 C1316 C 1.14973 0.41931 0.54789
 C1317 C 1.17276 0.41213 0.55529
 H1318 H 1.18144 0.39683 0.54695
 O1319 O 0.88418 0.59144 0.51954
 O1320 O 0.85630 0.61974 0.51930
 C1321 C 0.86465 0.60004 0.52753
 C1322 C 0.85182 0.58738 0.54702
 C1323 C 0.82937 0.59578 0.55466
 H1324 H 0.82108 0.61112 0.54579
 Cu1325 Cu 1.00058 0.40161 0.59888
 Cu1326 Cu 0.99990 0.36814 0.63275
 Cu1327 Cu 1.00328 0.60218 0.59850
 Cu1328 Cu 1.00351 0.63621 0.63162
 Cu1329 Cu 0.89917 0.40527 0.49809
 Cu1330 Cu 0.86500 0.37282 0.49814
 Cu1331 Cu 1.09828 0.39907 0.49788
 Cu1332 Cu 1.13234 0.36559 0.49915
 Cu1333 Cu 0.90363 0.60503 0.49630
 Cu1334 Cu 0.87026 0.63906 0.49620
 Cu1335 Cu 1.10321 0.60207 0.49668
 Cu1336 Cu 1.13706 0.63485 0.49676
 Cu1337 Cu 0.90128 0.50453 0.59855
 Cu1338 Cu 0.86785 0.50567 0.63200
 Cu1339 Cu 1.09973 0.50182 0.59847
 Cu1340 Cu 1.13404 0.50046 0.63153
 C1341 C 1.06339 0.43807 0.63911
 H1342 H 1.05619 0.44501 0.62232
 C1343 C 1.08300 0.41942 0.68201
 C1344 C 0.93948 0.56680 0.63884
 H1345 H 0.94645 0.55939 0.62228
 C1346 C 0.92054 0.58688 0.68110
 C1347 C 0.86248 0.56770 0.55899
 H1348 H 0.87991 0.56129 0.55333
 C1349 C 0.81784 0.58515 0.57429
 C1350 C 1.13871 0.43905 0.55912
 H1351 H 1.12072 0.44438 0.55390
 C1352 C 1.18468 0.42445 0.57366
 C1353 C 1.06143 0.35932 0.56141
 H1354 H 1.05410 0.37587 0.55404
 C1355 C 1.08155 0.31735 0.58132
 C1356 C 0.94224 0.64435 0.55877
 H1357 H 0.94901 0.62754 0.55167
 C1358 C 0.92392 0.68692 0.57838
 C1359 C 0.93885 0.44173 0.63923
 H1360 H 0.94574 0.44879 0.62249
 C1361 C 0.92010 0.42216 0.68167
 C1362 C 1.06355 0.56339 0.64069
 H1363 H 1.05680 0.55716 0.62354
 C1364 C 1.08205 0.58041 0.68434
 C1365 C 0.93723 0.36376 0.56090
 H1366 H 0.94433 0.38063 0.55452
 C1367 C 0.91768 0.32085 0.57811
 C1368 C 1.06638 0.64180 0.56010
 H1369 H 1.05928 0.62533 0.55280
 C1370 C 1.08560 0.68375 0.58001
 C1371 C 0.85914 0.44282 0.56135
 H1372 H 0.87604 0.44913 0.55444
 C1373 C 0.81568 0.42585 0.58002
 C1374 C 1.14169 0.56379 0.56050
 H1375 H 1.12419 0.55841 0.55418
 C1376 C 1.18673 0.57818 0.57754
 O1377 O 0.47618 0.92535 0.37394
 O1378 O 0.47469 0.89841 0.34504
 C1379 C 0.46724 0.91791 0.35432
 C1380 C 0.44733 0.93164 0.34278
 C1381 C 0.43707 0.92383 0.32105
 H1382 H 0.44432 0.90815 0.31210
 O1383 O 0.52493 1.09408 0.38383
 O1384 O 0.52624 1.12343 0.35715
 C1385 C 0.53346 1.10299 0.36469
 C1386 C 0.55219 1.08948 0.35143
 C1387 C 0.55924 1.09666 0.32826
 H1388 H 0.55054 1.11190 0.31964
 O1389 O 0.38296 0.98985 0.41225
 O1390 O 0.35405 0.99181 0.38514
 C1391 C 0.36308 0.98255 0.40410
 C1392 C 0.35066 0.96270 0.41644
 C1393 C 0.32802 0.95536 0.40846
 H1394 H 0.31949 0.96451 0.39342
 O1395 O 0.62072 1.02566 0.41282
 O1396 O 0.64898 1.02677 0.38534
 C1397 C 0.64040 1.03400 0.40519
 C1398 C 0.65310 1.05254 0.41945
 C1399 C 0.67564 1.06105 0.41227
 H1400 H 0.68421 1.05368 0.39646
 O1401 O 0.41429 0.88812 0.47145
 O1402 O 0.38603 0.86082 0.46950
 C1403 C 0.40563 0.86931 0.46205
 C1404 C 0.41817 0.85757 0.44183
 C1405 C 0.41108 0.83486 0.43366
 H1406 H 0.39719 0.82534 0.44315
 O1407 O 0.58995 1.11893 0.48270
 O1408 O 0.61850 1.14595 0.48360
 C1409 C 0.59876 1.13850 0.47517
 C1410 C 0.58625 1.15248 0.45603
 C1411 C 0.59494 1.17496 0.44880
 H1412 H 0.61056 1.18233 0.45759
 O1413 O 0.41499 1.03710 0.37995
 O1414 O 0.38634 1.03915 0.35257
 C1415 C 0.40617 1.04642 0.36095
 C1416 C 0.41894 1.06630 0.34902
 C1417 C 0.41066 1.07615 0.32719
 H1418 H 0.39481 1.06887 0.31879
 O1419 O 0.58848 0.98118 0.37634
 O1420 O 0.61670 0.98190 0.34882
 C1421 C 0.59708 0.97364 0.35653
 C1422 C 0.58420 0.95462 0.34303
 C1423 C 0.59291 0.94511 0.32116
 H1424 H 0.60891 0.95247 0.31323
 O1425 O 0.52168 0.88898 0.40583
 O1426 O 0.52047 0.86190 0.37702
 C1427 C 0.52885 0.86921 0.39697
 C1428 C 0.54740 0.85485 0.40989
 C1429 C 0.55461 0.83219 0.40133
 H1430 H 0.54629 0.82487 0.38536
 O1431 O 0.47960 1.12751 0.41811
 O1432 O 0.48067 1.15727 0.39190
 C1433 C 0.47216 1.14793 0.41091
 C1434 C 0.45308 1.16050 0.42468
 C1435 C 0.44489 1.18358 0.41801
 H1436 H 0.45303 1.19280 0.40299
 O1437 O 0.38532 1.09466 0.48141
 O1438 O 0.35815 1.12356 0.48345
 C1439 C 0.36599 1.10435 0.47392
 C1440 C 0.35290 1.09352 0.45351
 C1441 C 0.33055 1.10276 0.44613
 H1442 H 0.32229 1.11712 0.45632
 O1443 O 0.61604 0.91285 0.47322
 O1444 O 0.64342 0.88413 0.47153
 C1445 C 0.63528 0.90432 0.46447
 C1446 C 0.64818 0.91763 0.44556
 C1447 C 0.67028 0.90900 0.43732
 H1448 H 0.67828 0.89313 0.44548
 O1449 O 0.47843 1.09730 0.38278
 O1450 O 0.47957 1.12685 0.35632
 C1451 C 0.47066 1.10727 0.36363
 C1452 C 0.45062 1.09614 0.35027
 C1453 C 0.44230 1.10568 0.32827
 H1454 H 0.45144 1.12076 0.32028
 O1455 O 0.52314 0.92275 0.37369
 O1456 O 0.52169 0.89579 0.34480
 C1457 C 0.53094 0.91437 0.35398
 C1458 C 0.55152 0.92582 0.34203
 C1459 C 0.56043 0.91654 0.32044
 H1460 H 0.55174 0.90122 0.31242
 O1461 O 0.61855 0.97890 0.41194
 O1462 O 0.64704 0.97968 0.38467
 C1463 C 0.63804 0.97070 0.40364
 C1464 C 0.64984 0.95007 0.41588
 C1465 C 0.67206 0.94119 0.40796
 H1466 H 0.68113 0.94986 0.39315
 O1467 O 0.38332 1.03663 0.41374
 O1468 O 0.35450 1.03867 0.38653
 C1469 C 0.36372 1.04573 0.40618
 C1470 C 0.35187 1.06502 0.42022
 C1471 C 0.32969 1.07474 0.41288
 H1472 H 0.32115 1.06795 0.39679
 O1473 O 0.41898 1.12612 0.48316
 O1474 O 0.39194 1.15511 0.48533
 C1475 C 0.41095 1.14643 0.47625
 C1476 C 0.42343 1.15972 0.45695
 C1477 C 0.41567 1.18280 0.45014
 H1478 H 0.40087 1.19117 0.45954
 O1479 O 0.58224 0.88140 0.47208
 O1480 O 0.60958 0.85265 0.47023
 C1481 C 0.59021 0.86224 0.46264
 C1482 C 0.57724 0.85145 0.44213
 C1483 C 0.58424 0.82895 0.43324
 H1484 H 0.59845 0.81893 0.44217
 O1485 O 0.58636 1.02779 0.38132
 O1486 O 0.61432 1.02876 0.35350
 C1487 C 0.59480 1.03678 0.36225
 C1488 C 0.58199 1.05698 0.35034
 C1489 C 0.58864 1.06436 0.32727
 H1490 H 0.60303 1.05502 0.31812
 O1491 O 0.41438 0.99032 0.37827
 O1492 O 0.38560 0.99223 0.35102
 C1493 C 0.40515 0.98311 0.35869
 C1494 C 0.41685 0.96340 0.34512
 C1495 C 0.40682 0.95524 0.32347
 H1496 H 0.39109 0.96412 0.31607
 O1497 O 0.52626 1.12501 0.41845
 O1498 O 0.52757 1.15465 0.39210
 C1499 C 0.53529 1.14456 0.41121
 C1500 C 0.55532 1.15538 0.42481
 C1501 C 0.56428 1.17781 0.41793
 H1502 H 0.55581 1.18766 0.40330
 O1503 O 0.47534 0.89127 0.40578
 O1504 O 0.47420 0.86422 0.37692
 C1505 C 0.46668 0.87225 0.39687
 C1506 C 0.44766 0.85932 0.40974
 C1507 C 0.44005 0.83686 0.40153
 H1508 H 0.44805 0.82927 0.38555
 O1509 O 0.62163 1.08457 0.48129
 O1510 O 0.65019 1.11156 0.48245
 C1511 C 0.64123 1.09273 0.47341
 C1512 C 0.65349 1.08076 0.45310
 C1513 C 0.67606 1.08868 0.44583
 H1514 H 0.68472 1.10301 0.45560
 O1515 O 0.38317 0.92298 0.47347
 O1516 O 0.35482 0.89579 0.47139
 C1517 C 0.36355 0.91571 0.46469
 C1518 C 0.35094 0.93020 0.44610
 C1519 C 0.32817 0.92341 0.43811
 H1520 H 0.31939 0.90836 0.44658
 Cu1521 Cu 0.49922 0.90991 0.39260
 Cu1522 Cu 0.49763 0.87749 0.35793
 Cu1523 Cu 0.50212 1.10804 0.40341
 Cu1524 Cu 0.50371 1.14356 0.37176
 Cu1525 Cu 0.40181 1.01333 0.39876
 Cu1526 Cu 0.36723 1.01564 0.36607
 Cu1527 Cu 0.60077 1.00325 0.39827
 Cu1528 Cu 0.63459 1.00447 0.36537
 C1529 C 0.43723 0.95163 0.35450
 H1530 H 0.44476 0.95753 0.37144
 C1531 C 0.41672 0.93544 0.31138
 C1532 C 0.56354 1.06945 0.36221
 H1533 H 0.55846 1.06394 0.38016
 C1534 C 0.57729 1.08398 0.31600
 C1535 C 0.36195 0.95009 0.43539
 H1536 H 0.37965 0.95528 0.44130
 C1537 C 0.31668 0.93567 0.41915
 C1538 C 0.64227 1.06246 0.44001
 H1539 H 0.62474 1.05643 0.44545
 C1540 C 0.68728 1.07903 0.42552
 C1541 C 0.43672 0.86950 0.42997
 H1542 H 0.44223 0.88704 0.43612
 C1543 C 0.42195 0.82430 0.41349
 C1544 C 0.56629 1.14292 0.44404
 H1545 H 0.55970 1.12544 0.44925
 C1546 C 0.58410 1.18772 0.42974
 C1547 C 0.43900 1.07630 0.36025
 H1548 H 0.44520 1.06901 0.37730
 C1549 C 0.42229 1.09579 0.31653
 C1550 C 0.56333 0.94497 0.35299
 H1551 H 0.55661 0.95189 0.36987
 C1552 C 0.58095 0.92604 0.30959
 C1553 C 0.55868 0.86419 0.43046
 H1554 H 0.55347 0.88176 0.43701
 C1555 C 0.57307 0.81920 0.41289
 C1556 C 0.44231 1.14886 0.44430
 H1557 H 0.44819 1.13094 0.44934
 C1558 C 0.42625 1.19491 0.43078
 C1559 C 0.36324 1.07447 0.44062
 H1560 H 0.38054 1.06739 0.44615
 C1561 C 0.31877 1.09356 0.42579
 C1562 C 0.63816 0.93829 0.43488
 H1563 H 0.62089 0.94478 0.44093
 C1564 C 0.68225 0.92055 0.41854
 O1565 O 0.52450 0.90848 0.61764
 O1566 O 0.52361 0.87938 0.64463
 C1567 C 0.53229 0.89899 0.63698
 C1568 C 0.55202 0.91069 0.65026
 C1569 C 0.55931 0.90223 0.67299
 H1570 H 0.55010 0.88726 0.68114
 O1571 O 0.48274 1.08202 0.62478
 O1572 O 0.48292 1.10818 0.65446
 C1573 C 0.47455 1.08939 0.64470
 C1574 C 0.45478 1.07619 0.65628
 C1575 C 0.44714 1.08229 0.67951
 H1576 H 0.45625 1.09624 0.68941
 O1577 O 0.38433 1.02359 0.58730
 O1578 O 0.35645 1.02334 0.61523
 C1579 C 0.36505 1.03202 0.59599
 C1580 C 0.35273 1.05237 0.58386
 C1581 C 0.32960 1.05932 0.59080
 H1582 H 0.32063 1.04947 0.60491
 O1583 O 0.61936 0.97127 0.58586
 O1584 O 0.64800 0.96848 0.61320
 C1585 C 0.63885 0.96202 0.59330
 C1586 C 0.65071 0.94306 0.57911
 C1587 C 0.67300 0.93401 0.58647
 H1588 H 0.68191 0.94160 0.60202
 O1589 O 0.58402 0.87795 0.51921
 O1590 O 0.61158 0.84945 0.51724
 C1591 C 0.59263 0.85797 0.52648
 C1592 C 0.58119 0.84504 0.54663
 C1593 C 0.59167 0.82396 0.55600
 H1594 H 0.60734 0.81631 0.54745
 O1595 O 0.41971 1.12281 0.53014
 O1596 O 0.39254 1.15168 0.53232
 C1597 C 0.41190 1.14198 0.53975
 C1598 C 0.42508 1.15271 0.56019
 C1599 C 0.41728 1.17450 0.57023
 H1600 H 0.40228 1.18408 0.56219
 O1601 O 0.41594 0.97410 0.61833
 O1602 O 0.38826 0.97419 0.64645
 C1603 C 0.40738 0.96553 0.63762
 C1604 C 0.41931 0.94483 0.64956
 C1605 C 0.40986 0.93530 0.67080
 H1606 H 0.39455 0.94395 0.67910
 O1607 O 0.58918 1.01649 0.62279
 O1608 O 0.61771 1.01377 0.65026
 C1609 C 0.59827 1.02310 0.64262
 C1610 C 0.58640 1.04229 0.65650
 C1611 C 0.59502 1.04889 0.67923
 H1612 H 0.60997 1.03916 0.68721
 O1613 O 0.47744 0.87905 0.58267
 O1614 O 0.47642 0.84952 0.60916
 C1615 C 0.46861 0.85946 0.58998
 C1616 C 0.44855 0.84869 0.57638
 C1617 C 0.43825 0.82708 0.58407
 H1618 H 0.44544 0.81780 0.59971
 O1619 O 0.52994 1.11581 0.59457
 O1620 O 0.53041 1.14244 0.62381
 C1621 C 0.53835 1.13477 0.60384
 C1622 C 0.55778 1.14755 0.59117
 C1623 C 0.56625 1.16988 0.59923
 H1624 H 0.55818 1.17834 0.61475
 O1625 O 0.38167 0.91844 0.52014
 O1626 O 0.35334 0.89125 0.51789
 C1627 C 0.36202 0.90986 0.52754
 C1628 C 0.34967 0.92109 0.54818
 C1629 C 0.32838 0.91143 0.55708
 H1630 H 0.32008 0.89673 0.54761
 O1631 O 0.62263 1.08322 0.52845
 O1632 O 0.65106 1.11036 0.52944
 C1633 C 0.64224 1.09085 0.53707
 C1634 C 0.65451 1.07725 0.55665
 C1635 C 0.67632 1.08527 0.56628
 H1636 H 0.68438 1.10132 0.55903
 O1637 O 0.52923 1.08154 0.62625
 O1638 O 0.52965 1.10788 0.65576
 C1639 C 0.53739 1.08860 0.64638
 C1640 C 0.55649 1.07441 0.65847
 C1641 C 0.56517 1.08072 0.68135
 H1642 H 0.55738 1.09586 0.69078
 O1643 O 0.47786 0.90918 0.61787
 O1644 O 0.47676 0.87987 0.64460
 C1645 C 0.46914 0.90003 0.63684
 C1646 C 0.44943 0.91272 0.64939
 C1647 C 0.43962 0.90336 0.67069
 H1648 H 0.44694 0.88703 0.67855
 O1649 O 0.62155 1.01776 0.58972
 O1650 O 0.65017 1.01500 0.61709
 C1651 C 0.64144 1.02476 0.59826
 C1652 C 0.65414 1.04491 0.58652
 C1653 C 0.67611 1.05301 0.59568
 H1654 H 0.68444 1.04357 0.61065
 O1655 O 0.38229 0.97677 0.58628
 O1656 O 0.35460 0.97653 0.61438
 C1657 C 0.36275 0.96878 0.59458
 C1658 C 0.35000 0.94974 0.58128
 C1659 C 0.32885 0.93957 0.59026
 H1660 H 0.32138 0.94611 0.60696
 O1661 O 0.59033 1.11684 0.52974
 O1662 O 0.61875 1.14402 0.53044
 C1663 C 0.59926 1.13579 0.53854
 C1664 C 0.58725 1.14803 0.55883
 C1665 C 0.59535 1.17031 0.56698
 H1666 H 0.61017 1.17884 0.55798
 O1667 O 0.41507 0.88590 0.51844
 O1668 O 0.38667 0.85877 0.51635
 C1669 C 0.40619 0.86618 0.52537
 C1670 C 0.41813 0.85208 0.54470
 C1671 C 0.40822 0.83044 0.55258
 H1672 H 0.39259 0.82339 0.54354
 O1673 O 0.58854 0.96978 0.62051
 O1674 O 0.61701 0.96704 0.64803
 C1675 C 0.59713 0.96011 0.63948
 C1676 C 0.58395 0.94040 0.65140
 C1677 C 0.59111 0.93156 0.67409
 H1678 H 0.60608 0.93963 0.68337
 O1679 O 0.41739 1.02076 0.62018
 O1680 O 0.38967 1.02077 0.64827
 C1681 C 0.40945 1.02831 0.64015
 C1682 C 0.42310 1.04630 0.65396
 C1683 C 0.41587 1.05256 0.67723
 H1684 H 0.40050 1.04394 0.68517
 O1685 O 0.48340 1.11681 0.59400
 O1686 O 0.48366 1.14324 0.62344
 C1687 C 0.47547 1.13601 0.60340
 C1688 C 0.45612 1.14977 0.59125
 C1689 C 0.44796 1.17150 0.60105
 H1690 H 0.45622 1.17840 0.61725
 O1691 O 0.52396 0.87643 0.58410
 O1692 O 0.52336 0.84709 0.61082
 C1693 C 0.53181 0.85631 0.59179
 C1694 C 0.55154 0.84413 0.57877
 C1695 C 0.56229 0.82301 0.58791
 H1696 H 0.55559 0.81496 0.60429
 O1697 O 0.61669 0.91055 0.51998
 O1698 O 0.64428 0.88203 0.51819
 C1699 C 0.63625 0.90132 0.52740
 C1700 C 0.64942 0.91295 0.54730
 C1701 C 0.67157 0.90371 0.55536
 H1702 H 0.67953 0.88820 0.54672
 O1703 O 0.38572 1.09142 0.52815
 O1704 O 0.35838 1.12015 0.53015
 C1705 C 0.36637 1.09975 0.53683
 C1706 C 0.35334 1.08564 0.55512
 C1707 C 0.33015 1.09238 0.56232
 H1708 H 0.32136 1.10771 0.55394
 Cu1709 Cu 0.50105 0.89619 0.59792
 Cu1710 Cu 0.49996 0.86099 0.62998
 Cu1711 Cu 0.50642 1.09641 0.60697
 Cu1712 Cu 0.50667 1.12811 0.64234
 Cu1713 Cu 0.40141 0.90657 0.49606
 Cu1714 Cu 0.36740 0.87392 0.49348
 Cu1715 Cu 0.59691 0.89849 0.49632
 Cu1716 Cu 0.62989 0.86412 0.49405
 Cu1717 Cu 0.40517 1.10588 0.50556
 Cu1718 Cu 0.37259 1.14058 0.50808
 Cu1719 Cu 0.60328 1.09816 0.50546
 Cu1720 Cu 0.63750 1.13065 0.50651
 Cu1721 Cu 0.40270 0.99883 0.60013
 Cu1722 Cu 0.36947 0.99882 0.63393
 Cu1723 Cu 0.60176 0.99411 0.60201
 Cu1724 Cu 0.63613 0.99072 0.63488
 C1725 C 0.56429 0.92994 0.63977
 H1726 H 0.55888 0.93643 0.62214
 C1727 C 0.57875 0.91259 0.68510
 C1728 C 0.44276 1.05799 0.64371
 H1729 H 0.44826 1.05341 0.62563
 C1730 C 0.42774 1.07049 0.69010
 C1731 C 0.36435 1.06546 0.56584
 H1732 H 0.38231 1.06031 0.56060
 C1733 C 0.31806 1.07917 0.58004
 C1734 C 0.63920 0.93274 0.55923
 H1735 H 0.62184 0.93959 0.55359
 C1736 C 0.68343 0.91435 0.57485
 C1737 C 0.56100 0.85482 0.55798
 H1738 H 0.55313 0.87132 0.55107
 C1739 C 0.58256 0.81296 0.57675
 C1740 C 0.44471 1.14058 0.57069
 H1741 H 0.45064 1.12358 0.56331
 C1742 C 0.42851 1.18393 0.59075
 C1743 C 0.43924 0.93357 0.63910
 H1744 H 0.44637 0.94066 0.62248
 C1745 C 0.41967 0.91449 0.68136
 C1746 C 0.56703 1.05499 0.64639
 H1747 H 0.56061 1.05019 0.62864
 C1748 C 0.58450 1.06804 0.69178
 C1749 C 0.43846 0.86095 0.55653
 H1750 H 0.44595 0.87787 0.55077
 C1751 C 0.41796 0.81796 0.57235
 C1752 C 0.56832 1.13695 0.57085
 H1753 H 0.56218 1.11963 0.56469
 C1754 C 0.58492 1.18149 0.58703
 C1755 C 0.36010 0.94044 0.56017
 H1756 H 0.37666 0.94778 0.55346
 C1757 C 0.31796 0.92024 0.57832
 C1758 C 0.64367 1.05699 0.56683
 H1759 H 0.62663 1.05101 0.55982
 C1760 C 0.68732 1.07331 0.58583
 O1761 O 0.58560 0.51992 1.11860
 O1762 O 0.61380 0.51970 1.14650
 C1763 C 0.59422 0.52806 1.13808
 C1764 C 0.58201 0.54814 1.15059
 C1765 C 0.59203 0.55758 1.17166
 H1766 H 0.60760 0.54890 1.17962
 O1767 O 0.41242 0.47591 1.12225
 O1768 O 0.38516 0.47623 1.15078
 C1769 C 0.40449 0.46791 1.14201
 C1770 C 0.41778 0.44831 1.15434
 C1771 C 0.41064 0.43970 1.17697
 H1772 H 0.39537 0.44776 1.18587
 O1773 O 0.52100 0.61741 1.08782
 O1774 O 0.52114 0.64548 1.11568
 C1775 C 0.52907 0.63702 1.09603
 C1776 C 0.54839 0.64977 1.08312
 C1777 C 0.55655 0.67192 1.09167
 H1778 H 0.54809 0.68011 1.10714
 O1779 O 0.47437 0.38131 1.08636
 O1780 O 0.47471 0.35289 1.11411
 C1781 C 0.46624 0.36182 1.09476
 C1782 C 0.44647 0.34953 1.08223
 C1783 C 0.43946 0.32664 1.08979
 H1784 H 0.44885 0.31787 1.10455
 O1785 O 0.61638 0.58490 1.02296
 O1786 O 0.64396 0.61291 1.02284
 C1787 C 0.63585 0.59326 1.03105
 C1788 C 0.64864 0.58023 1.05067
 C1789 C 0.67052 0.58861 1.05982
 H1790 H 0.67858 0.60447 1.05212
 O1791 O 0.37452 0.41468 1.02606
 O1792 O 0.34684 0.38676 1.02667
 C1793 C 0.35540 0.40617 1.03478
 C1794 C 0.34358 0.41871 1.05506
 C1795 C 0.32116 0.41138 1.06369
 H1796 H 0.31178 0.39705 1.05465
 O1797 O 0.47524 0.58490 1.12231
 O1798 O 0.47587 0.61265 1.15047
 C1799 C 0.46748 0.59329 1.14207
 C1800 C 0.44792 0.58076 1.15486
 C1801 C 0.43981 0.58867 1.17749
 H1802 H 0.44873 0.60341 1.18632
 O1803 O 0.52229 0.41234 1.11898
 O1804 O 0.52249 0.38388 1.14669
 C1805 C 0.53075 0.40332 1.13828
 C1806 C 0.55095 0.41506 1.15065
 C1807 C 0.56013 0.40551 1.17219
 H1808 H 0.55125 0.39047 1.18056
 O1809 O 0.61913 0.47319 1.08605
 O1810 O 0.64744 0.47303 1.11384
 C1811 C 0.63877 0.46488 1.09440
 C1812 C 0.65101 0.44494 1.08171
 C1813 C 0.67322 0.43572 1.08978
 H1814 H 0.68219 0.44384 1.10500
 O1815 O 0.37957 0.52214 1.08865
 O1816 O 0.35180 0.52286 1.11670
 C1817 C 0.36004 0.53041 1.09679
 C1818 C 0.34700 0.54910 1.08294
 C1819 C 0.32343 0.55538 1.08881
 H1820 H 0.31461 0.54637 1.10357
 O1821 O 0.41181 0.61661 1.02460
 O1822 O 0.38368 0.64465 1.02436
 C1823 C 0.40312 0.63606 1.03282
 C1824 C 0.41524 0.64847 1.05292
 C1825 C 0.40589 0.67011 1.06181
 H1826 H 0.39058 0.67839 1.05295
 O1827 O 0.58394 0.37855 1.02299
 O1828 O 0.61126 0.34968 1.02323
 C1829 C 0.59185 0.35864 1.03107
 C1830 C 0.57860 0.34608 1.05016
 C1831 C 0.58559 0.32294 1.05757
 H1832 H 0.59992 0.31375 1.04822
 O1833 O 0.41181 0.52264 1.12229
 O1834 O 0.38434 0.52316 1.15061
 C1835 C 0.40369 0.53104 1.14189
 C1836 C 0.41665 0.55040 1.15449
 C1837 C 0.40878 0.55858 1.17698
 H1838 H 0.39325 0.55046 1.18511
 O1839 O 0.58637 0.47308 1.11877
 O1840 O 0.61456 0.47276 1.14667
 C1841 C 0.59510 0.46466 1.13823
 C1842 C 0.58271 0.44482 1.15063
 C1843 C 0.59198 0.43471 1.17202
 H1844 H 0.60826 0.44175 1.17978
 O1845 O 0.52104 0.37957 1.08614
 O1846 O 0.52113 0.35112 1.11387
 C1847 C 0.52901 0.35968 1.09430
 C1848 C 0.54798 0.34665 1.08119
 C1849 C 0.55553 0.32372 1.08876
 H1850 H 0.54719 0.31553 1.10424
 O1851 O 0.47431 0.61713 1.08860
 O1852 O 0.47436 0.64506 1.11660
 C1853 C 0.46593 0.63655 1.09716
 C1854 C 0.44576 0.64881 1.08458
 C1855 C 0.43595 0.67039 1.09340
 H1856 H 0.44346 0.67850 1.10939
 O1857 O 0.37887 0.58420 1.02403
 O1858 O 0.35063 0.61215 1.02364
 C1859 C 0.35919 0.59256 1.03188
 C1860 C 0.34651 0.57949 1.05113
 C1861 C 0.32293 0.58569 1.05734
 H1862 H 0.31357 0.59978 1.04752
 O1863 O 0.61735 0.41039 1.02326
 O1864 O 0.64474 0.38161 1.02352
 C1865 C 0.63666 0.40136 1.03156
 C1866 C 0.64961 0.41367 1.05108
 C1867 C 0.67159 0.40459 1.05947
 H1868 H 0.67956 0.38899 1.05097
 O1869 O 0.47574 0.41325 1.12012
 O1870 O 0.47609 0.38484 1.14788
 C1871 C 0.46807 0.40470 1.13980
 C1872 C 0.44915 0.41757 1.15312
 C1873 C 0.44205 0.40940 1.17580
 H1874 H 0.45152 0.39447 1.18415
 O1875 O 0.52204 0.58401 1.12035
 O1876 O 0.52283 0.61196 1.14831
 C1877 C 0.53096 0.59248 1.13953
 C1878 C 0.55145 0.57989 1.15123
 C1879 C 0.56218 0.58939 1.17201
 H1880 H 0.55515 0.60581 1.17971
 O1881 O 0.37826 0.47564 1.09063
 O1882 O 0.35084 0.47633 1.11901
 C1883 C 0.35881 0.46792 1.09941
 C1884 C 0.34549 0.44880 1.08682
 C1885 C 0.32317 0.44121 1.09529
 H1886 H 0.31566 0.44950 1.11117
 O1887 O 0.61767 0.52006 1.08522
 O1888 O 0.64595 0.51994 1.11304
 C1889 C 0.63707 0.52830 1.09360
 C1890 C 0.64908 0.54833 1.08110
 C1891 C 0.67087 0.55694 1.08987
 H1892 H 0.67951 0.54804 1.10500
 O1893 O 0.40799 0.38226 1.02520
 O1894 O 0.38056 0.35408 1.02592
 C1895 C 0.40021 0.36260 1.03354
 C1896 C 0.41405 0.34985 1.05255
 C1897 C 0.40725 0.32693 1.06045
 H1898 H 0.39214 0.31814 1.05212
 O1899 O 0.58392 0.61848 1.02373
 O1900 O 0.61120 0.64676 1.02341
 C1901 C 0.59213 0.63803 1.03203
 C1902 C 0.57959 0.65024 1.05227
 C1903 C 0.58784 0.67222 1.06159
 H1904 H 0.60322 0.68081 1.05367
 Cu1905 Cu 0.59938 0.49648 1.09936
 Cu1906 Cu 0.63327 0.49641 1.13282
 Cu1907 Cu 0.39830 0.49900 1.10317
 Cu1908 Cu 0.36531 0.49979 1.13718
 Cu1909 Cu 0.49806 0.59806 1.10203
 Cu1910 Cu 0.49863 0.63157 1.13558
 Cu1911 Cu 0.49833 0.39949 1.10008
 Cu1912 Cu 0.49858 0.36532 1.13344
 C1913 C 0.56151 0.55921 1.14066
 H1914 H 0.55383 0.55216 1.12425
 C1915 C 0.58260 0.57844 1.18225
 C1916 C 0.43716 0.43721 1.14267
 H1917 H 0.44248 0.44338 1.12500
 C1918 C 0.42270 0.42014 1.18777
 C1919 C 0.55978 0.63926 1.06320
 H1920 H 0.55362 0.62211 1.05663
 C1921 C 0.57624 0.68322 1.08118
 C1922 C 0.43384 0.36092 1.06343
 H1923 H 0.43904 0.37872 1.05770
 C1924 C 0.41996 0.31519 1.07902
 C1925 C 0.63818 0.55993 1.06135
 H1926 H 0.62112 0.55356 1.05474
 C1927 C 0.68161 0.57712 1.07955
 C1928 C 0.35541 0.43759 1.06661
 H1929 H 0.37276 0.44318 1.06023
 C1930 C 0.31072 0.42262 1.08380
 C1931 C 0.43635 0.56144 1.14371
 H1932 H 0.44226 0.55540 1.12619
 C1933 C 0.42025 0.57758 1.18877
 C1934 C 0.56214 0.43490 1.14019
 H1935 H 0.55519 0.44220 1.12343
 C1936 C 0.58083 0.41492 1.18287
 C1937 C 0.63956 0.43393 1.06215
 H1938 H 0.62235 0.44070 1.05597
 C1939 C 0.68350 0.41543 1.07876
 C1940 C 0.35830 0.56104 1.06390
 H1941 H 0.37660 0.55637 1.05942
 C1942 C 0.31123 0.57354 1.07603
 C1943 C 0.43532 0.63809 1.06425
 H1944 H 0.44244 0.62124 1.05759
 C1945 C 0.41588 0.68109 1.08216
 C1946 C 0.55954 0.35764 1.06179
 H1947 H 0.55418 0.37557 1.05624
 C1948 C 0.57428 0.31164 1.07700
 O1949 O 0.58402 0.47268 0.88337
 O1950 O 0.61118 0.47229 0.85476
 C1951 C 0.59204 0.46409 0.86384
 C1952 C 0.57933 0.44407 0.85179
 C1953 C 0.58751 0.43528 0.82962
 H1954 H 0.60245 0.44389 0.82091
 O1955 O 0.40974 0.51954 0.87934
 O1956 O 0.38174 0.51978 0.85121
 C1957 C 0.40137 0.52754 0.85956
 C1958 C 0.41420 0.54661 0.84656
 C1959 C 0.40639 0.55422 0.82375
 H1960 H 0.39129 0.54552 0.81531
 O1961 O 0.47257 0.61455 0.91261
 O1962 O 0.47233 0.64262 0.88451
 C1963 C 0.46461 0.63434 0.90431
 C1964 C 0.44604 0.64772 0.91774
 C1965 C 0.43927 0.67102 0.91070
 H1966 H 0.44789 0.67939 0.89546
 O1967 O 0.51844 0.37650 0.91574
 O1968 O 0.51817 0.34813 0.88818
 C1969 C 0.52648 0.35675 0.90755
 C1970 C 0.54648 0.34437 0.92010
 C1971 C 0.55532 0.32215 0.91186
 H1972 H 0.54673 0.31328 0.89686
 O1973 O 0.61731 0.41048 0.97641
 O1974 O 0.64478 0.38178 0.97672
 C1975 C 0.63666 0.40153 0.96843
 C1976 C 0.64952 0.41392 0.94892
 C1977 C 0.67108 0.40450 0.94014
 H1978 H 0.67889 0.38856 0.94836
 O1979 O 0.37951 0.58402 0.97710
 O1980 O 0.35169 0.61237 0.97683
 C1981 C 0.36016 0.59282 0.96864
 C1982 C 0.34768 0.58077 0.94855
 C1983 C 0.32602 0.59024 0.93976
 H1984 H 0.31780 0.60542 0.94875
 O1985 O 0.51870 0.58106 0.87966
 O1986 O 0.51831 0.60885 0.85128
 C1987 C 0.52661 0.58932 0.85997
 C1988 C 0.54614 0.57649 0.84743
 C1989 C 0.55388 0.58439 0.82482
 H1990 H 0.54496 0.59948 0.81613
 O1991 O 0.47266 0.41059 0.88196
 O1992 O 0.47267 0.38229 0.85433
 C1993 C 0.46453 0.40199 0.86246
 C1994 C 0.44459 0.41426 0.84970
 C1995 C 0.43552 0.40461 0.82833
 H1996 H 0.44451 0.38936 0.82025
 O1997 O 0.61670 0.52100 0.91422
 O1998 O 0.64392 0.52072 0.88569
 C1999 C 0.63563 0.52946 0.90509
 C2000 C 0.64766 0.55017 0.91670
 C2001 C 0.66844 0.55990 0.90664
 H2002 H 0.67638 0.55144 0.89105
 O2003 O 0.37602 0.47488 0.91356
 O2004 O 0.34769 0.47561 0.88578
 C2005 C 0.35604 0.46765 0.90557
 C2006 C 0.34262 0.44944 0.91920
 C2007 C 0.31963 0.44279 0.91182
 H2008 H 0.31141 0.45149 0.89634
 O2009 O 0.58225 0.61759 0.97652
 O2010 O 0.60954 0.64587 0.97586
 C2011 C 0.59022 0.63698 0.96777
 C2012 C 0.57734 0.64860 0.94732
 C2013 C 0.58565 0.67015 0.93721
 H2014 H 0.60106 0.67896 0.94495
 O2015 O 0.40721 0.38260 0.97845
 O2016 O 0.37958 0.35463 0.97905
 C2017 C 0.39885 0.36303 0.97053
 C2018 C 0.41124 0.35005 0.95088
 C2019 C 0.40217 0.32817 0.94274
 H2020 H 0.38695 0.32038 0.95175
 O2021 O 0.40861 0.47286 0.88054
 O2022 O 0.38045 0.47294 0.85262
 C2023 C 0.39987 0.46443 0.86125
 C2024 C 0.41239 0.44424 0.84921
 C2025 C 0.40323 0.43397 0.82801
 H2026 H 0.38686 0.44103 0.82008
 O2027 O 0.58405 0.51947 0.88092
 O2028 O 0.61120 0.51914 0.85229
 C2029 C 0.59175 0.52725 0.86091
 C2030 C 0.57822 0.54634 0.84795
 C2031 C 0.58587 0.55469 0.82539
 H2032 H 0.60134 0.54655 0.81691
 O2033 O 0.47155 0.37854 0.91573
 O2034 O 0.47117 0.35015 0.88821
 C2035 C 0.46281 0.35927 0.90742
 C2036 C 0.44228 0.34793 0.91997
 C2037 C 0.43257 0.32609 0.91186
 H2038 H 0.44036 0.31713 0.89648
 O2039 O 0.51913 0.61433 0.91206
 O2040 O 0.51876 0.64215 0.88371
 C2041 C 0.52714 0.63377 0.90335
 C2042 C 0.54671 0.64662 0.91575
 C2043 C 0.55534 0.66806 0.90598
 H2044 H 0.54702 0.67564 0.88997
 O2045 O 0.37345 0.41474 0.97901
 O2046 O 0.34563 0.38696 0.97945
 C2047 C 0.35392 0.40638 0.97099
 C2048 C 0.34141 0.41921 0.95111
 C2049 C 0.31848 0.41245 0.94323
 H2050 H 0.30921 0.39803 0.95227
 O2051 O 0.61642 0.58592 0.97597
 O2052 O 0.64390 0.61402 0.97557
 C2053 C 0.63558 0.59452 0.96734
 C2054 C 0.64774 0.58202 0.94706
 C2055 C 0.66861 0.59145 0.93664
 H2056 H 0.67634 0.60769 0.94383
 O2057 O 0.51950 0.40999 0.88340
 O2058 O 0.51953 0.38178 0.85569
 C2059 C 0.52797 0.40117 0.86416
 C2060 C 0.54818 0.41335 0.85188
 C2061 C 0.55691 0.40473 0.82980
 H2062 H 0.54868 0.38923 0.82161
 O2063 O 0.47205 0.58233 0.87886
 O2064 O 0.47171 0.61027 0.85064
 C2065 C 0.46378 0.59077 0.85917
 C2066 C 0.44445 0.57789 0.84642
 C2067 C 0.43631 0.58543 0.82357
 H2068 H 0.44477 0.60044 0.81468
 O2069 O 0.37788 0.52139 0.91265
 O2070 O 0.34970 0.52225 0.88472
 C2071 C 0.35865 0.53033 0.90412
 C2072 C 0.34695 0.55061 0.91674
 C2073 C 0.32544 0.56067 0.90795
 H2074 H 0.31720 0.55342 0.89190
 O2075 O 0.61885 0.47390 0.91428
 O2076 O 0.64621 0.47346 0.88587
 C2077 C 0.63821 0.46550 0.90564
 C2078 C 0.65069 0.44550 0.91833
 C2079 C 0.67249 0.43593 0.90986
 H2080 H 0.68112 0.44394 0.89442
 O2081 O 0.58399 0.37845 0.97645
 O2082 O 0.61147 0.34974 0.97677
 C2083 C 0.59202 0.35857 0.96863
 C2084 C 0.57887 0.34572 0.94964
 C2085 C 0.58749 0.32365 0.94116
 H2086 H 0.60339 0.31561 0.94917
 O2087 O 0.41168 0.61705 0.97757
 O2088 O 0.38394 0.64549 0.97739
 C2089 C 0.40334 0.63672 0.96928
 C2090 C 0.41609 0.64903 0.94957
 C2091 C 0.40937 0.67229 0.94215
 H2092 H 0.39522 0.68181 0.95148
 Cu2093 Cu 0.59828 0.49681 0.90110
 Cu2094 Cu 0.63088 0.49636 0.86685
 Cu2095 Cu 0.39593 0.49703 0.89928
 Cu2096 Cu 0.36205 0.49766 0.86574
 Cu2097 Cu 0.59703 0.59900 0.99987
 Cu2098 Cu 0.62984 0.63274 0.99943
 Cu2099 Cu 0.59792 0.39743 0.99974
 Cu2100 Cu 0.63089 0.36283 1.00009
 Cu2101 Cu 0.39831 0.59767 1.00089
 Cu2102 Cu 0.36468 0.63151 1.00055
 Cu2103 Cu 0.39343 0.40147 1.00215
 Cu2104 Cu 0.36037 0.36779 1.00282
 Cu2105 Cu 0.49554 0.59522 0.89859
 Cu2106 Cu 0.49522 0.62878 0.86470
 Cu2107 Cu 0.49557 0.39667 0.90200
 Cu2108 Cu 0.49538 0.36278 0.86884
 C2109 C 0.55950 0.43311 0.86267
 H2110 H 0.55319 0.43967 0.87984
 C2111 C 0.57655 0.41558 0.81849
 C2112 C 0.43341 0.55832 0.85761
 H2113 H 0.43928 0.55266 0.87537
 C2114 C 0.41733 0.57356 0.81205
 C2115 C 0.43456 0.63699 0.93737
 H2116 H 0.43959 0.61891 0.94274
 C2117 C 0.42105 0.68347 0.92285
 C2118 C 0.55823 0.35585 0.93919
 H2119 H 0.55177 0.37313 0.94540
 C2120 C 0.57595 0.31183 0.92224
 C2121 C 0.63961 0.43453 0.93809
 H2122 H 0.62269 0.44154 0.94455
 C2123 C 0.68264 0.41531 0.92065
 C2124 C 0.35791 0.56077 0.93711
 H2125 H 0.37477 0.55350 0.94371
 C2126 C 0.31493 0.58061 0.91931
 C2127 C 0.55820 0.55724 0.85871
 H2128 H 0.55248 0.55126 0.87631
 C2129 C 0.57373 0.57367 0.81373
 C2130 C 0.43314 0.43426 0.85983
 H2131 H 0.43998 0.44160 0.87649
 C2132 C 0.41463 0.41395 0.81758
 C2133 C 0.63758 0.56127 0.93701
 H2134 H 0.62134 0.55411 0.94463
 C2135 C 0.67899 0.58061 0.91629
 C2136 C 0.35318 0.43785 0.93906
 H2137 H 0.37103 0.44286 0.94466
 C2138 C 0.30741 0.42439 0.92369
 C2139 C 0.55768 0.63709 0.93654
 H2140 H 0.55136 0.62029 0.94390
 C2141 C 0.57483 0.67981 0.91640
 C2142 C 0.43143 0.35970 0.93956
 H2143 H 0.43837 0.37671 0.94569
 C2144 C 0.41238 0.31616 0.92313
 C2145 C 1.14288 1.10667 1.26478
 C2146 C 1.12622 1.11719 1.28074
 C2147 C 1.10187 1.11785 1.27375
 C2148 C 1.09447 1.10833 1.25161
 C2149 C 1.11153 1.09833 1.23583
 C2150 C 1.13564 1.09755 1.24261
 C2151 C 1.10424 1.08938 1.21344
 C2152 C 1.07997 1.08988 1.20667
 C2153 C 1.06305 1.09939 1.22279
 C2154 C 1.07024 1.10863 1.24498
 H2155 H 1.08838 1.12489 1.28580
 H2156 H 1.14899 1.09002 1.23066
 H2157 H 1.11758 1.08245 1.20114
 H2158 H 1.05683 1.11600 1.25696
 H2159 H 1.16185 1.10643 1.26873
 H2160 H 1.04418 1.09960 1.21830
 C2161 C 1.08509 0.62262 0.78757
 C2162 C 1.11012 0.62291 0.79001
 C2163 C 1.12438 0.61534 0.77069
 C2164 C 1.11390 0.60719 0.74935
 C2165 C 1.08871 0.60660 0.74711
 C2166 C 1.07446 0.61446 0.76630
 C2167 C 1.07830 0.59802 0.72579
 C2168 C 1.09279 0.59000 0.70675
 C2169 C 1.11781 0.59109 0.70916
 C2170 C 1.12826 0.59956 0.73025
 H2171 H 1.14371 0.61595 0.77222
 H2172 H 1.05512 0.61417 0.76492
 H2173 H 1.05899 0.59717 0.72418
 H2174 H 1.14759 0.60009 0.73164
 H2175 H 1.07378 0.62834 0.80227
 H2176 H 1.12936 0.58553 0.69458
 C2177 C 0.58303 1.09906 0.79860
 C2178 C 0.60775 1.10281 0.80122
 C2179 C 0.62298 1.09761 0.78187
 C2180 C 0.61360 1.08961 0.75991
 C2181 C 0.58864 1.08658 0.75724
 C2182 C 0.57355 1.09099 0.77682
 C2183 C 0.57918 1.07952 0.73496
 C2184 C 0.59439 1.07528 0.71537
 C2185 C 0.61920 1.07798 0.71833
 C2186 C 0.62873 1.08514 0.74039
 H2187 H 0.64203 1.10075 0.78355
 H2188 H 0.55440 1.08859 0.77516
 H2189 H 0.56004 1.07722 0.73285
 H2190 H 0.64789 1.08739 0.74211
 H2191 H 0.57097 1.10270 0.81336
 H2192 H 0.63121 1.07495 0.70339
 C2193 C 0.59321 0.63120 1.27987
 C2194 C 0.61841 0.62985 1.28169
 C2195 C 0.63113 0.61872 1.26284
 C2196 C 0.61915 0.60916 1.24294
 C2197 C 0.59394 0.61017 1.24171
 C2198 C 0.58115 0.62127 1.26025
 C2199 C 0.58199 0.60009 1.22195
 C2200 C 0.59501 0.58935 1.20318
 C2201 C 0.62017 0.58912 1.20438
 C2202 C 0.63210 0.59875 1.22412
 H2203 H 0.65051 0.61833 1.26294
 H2204 H 0.56178 0.62221 1.25963
 H2205 H 0.56261 0.60035 1.22136
 H2206 H 0.65148 0.59812 1.22462
 H2207 H 0.58252 0.63896 1.29408
 H2208 H 0.63074 0.58165 1.18991
 C2209 C 0.88604 0.91699 1.29013
 C2210 C 0.88505 0.89179 1.29312
 C2211 C 0.89294 0.87719 1.27397
 C2212 C 0.90050 0.88741 1.25221
 C2213 C 0.90106 0.91263 1.24954
 C2214 C 0.89409 0.92722 1.26872
 C2215 C 0.90848 0.92283 1.22769
 C2216 C 0.91517 0.90809 1.20835
 C2217 C 0.91414 0.88299 1.21113
 C2218 C 0.90701 0.87276 1.23286
 H2219 H 0.89182 0.85783 1.27521
 H2220 H 0.89464 0.94660 1.26712
 H2221 H 0.90935 0.94218 1.22587
 H2222 H 0.90645 0.85338 1.23446
 H2223 H 0.88118 0.92903 1.30457
 H2224 H 0.91874 0.87119 1.19640
 C2225 C 0.87804 0.41421 0.78439
 C2226 C 0.87754 0.38887 0.78589
 C2227 C 0.88549 0.37558 0.76585
 C2228 C 0.89330 0.38715 0.74493
 C2229 C 0.89383 0.41248 0.74386
 C2230 C 0.88623 0.42581 0.76373
 C2231 C 0.90210 0.42400 0.72301
 C2232 C 0.90978 0.41043 0.70319
 C2233 C 0.90845 0.38523 0.70427
 C2234 C 0.90040 0.37371 0.72494
 H2235 H 0.88452 0.35617 0.76585
 H2236 H 0.88665 0.44526 0.76333
 H2237 H 0.90308 0.44342 0.72241
 H2238 H 0.89982 0.35428 0.72531
 H2239 H 0.87295 0.42530 0.79949
 H2240 H 0.91375 0.37436 0.68905
 C2241 C 0.41251 0.87346 0.78502
 C2242 C 0.38741 0.87299 0.78611
 C2243 C 0.37395 0.87992 0.76580
 C2244 C 0.38532 0.88751 0.74476
 C2245 C 0.41058 0.88828 0.74387
 C2246 C 0.42402 0.88111 0.76409
 C2247 C 0.42188 0.89649 0.72290
 C2248 C 0.40817 0.90411 0.70295
 C2249 C 0.38309 0.90267 0.70393
 C2250 C 0.37177 0.89447 0.72462
 H2251 H 0.35458 0.87920 0.76633
 H2252 H 0.44339 0.88156 0.76377
 H2253 H 0.44122 0.89761 0.72234
 H2254 H 0.35241 0.89378 0.72494
 H2255 H 0.42322 0.86822 0.80050
 H2256 H 0.37218 0.90803 0.68863
 C2257 C 0.38718 0.42053 1.29323
 C2258 C 0.38705 0.39540 1.29681
 C2259 C 0.39456 0.38055 1.27771
 C2260 C 0.40135 0.39038 1.25561
 C2261 C 0.40135 0.41553 1.25236
 C2262 C 0.39444 0.43044 1.27135
 C2263 C 0.40816 0.42528 1.23014
 C2264 C 0.41477 0.41012 1.21109
 C2265 C 0.41422 0.38510 1.21447
 C2266 C 0.40770 0.37533 1.23654
 H2267 H 0.39378 0.36119 1.27929
 H2268 H 0.39449 0.44979 1.26926
 H2269 H 0.40863 0.44460 1.22777
 H2270 H 0.40753 0.35598 1.23864
 H2271 H 0.38235 0.43275 1.30752
 H2272 H 0.41873 0.37301 1.19993
 C2273 C 0.88687 1.14533 0.73046
 C2274 C 0.87736 1.12876 0.71385
 C2275 C 0.87722 1.10423 0.72031
 C2276 C 0.88717 1.09645 0.74228
 C2277 C 0.89649 1.11338 0.75860
 C2278 C 0.89605 1.13775 0.75260
 C2279 C 0.90617 1.10569 0.78066
 C2280 C 0.90724 1.08114 0.78653
 C2281 C 0.89843 1.06438 0.76986
 C2282 C 0.88831 1.07196 0.74806
 H2283 H 0.87068 1.09094 0.70777
 H2284 H 0.90297 1.15101 0.76498
 H2285 H 0.91251 1.11891 0.79338
 H2286 H 0.88153 1.05866 0.73566
 H2287 H 0.88653 1.16443 0.72680
 H2288 H 0.89942 1.04531 0.77362
 C2289 C 0.88276 0.58874 0.20641
 C2290 C 0.87966 0.61380 0.20479
 C2291 C 0.88572 0.62803 0.22471
 C2292 C 0.89462 0.61744 0.24594
 C2293 C 0.89751 0.59224 0.24742
 C2294 C 0.89159 0.57807 0.22751
 C2295 C 0.90632 0.58166 0.26874
 C2296 C 0.91246 0.59602 0.28855
 C2297 C 0.90944 0.62106 0.28685
 C2298 C 0.90057 0.63167 0.26578
 H2299 H 0.88309 0.64732 0.22387
 H2300 H 0.89379 0.55873 0.22824
 H2301 H 0.90874 0.56236 0.26981
 H2302 H 0.89838 0.65101 0.26501
 H2303 H 0.87850 0.57738 0.19125
 H2304 H 0.91373 0.63246 0.30197
 C2305 C 0.37428 1.09671 0.21547
 C2306 C 0.37412 1.12180 0.21150
 C2307 C 0.38433 1.13650 0.22950
 C2308 C 0.39408 1.12653 0.25069
 C2309 C 0.39407 1.10144 0.25414
 C2310 C 0.38422 1.08671 0.23639
 C2311 C 0.40370 1.09148 0.27538
 C2312 C 0.41302 1.10632 0.29356
 C2313 C 0.41286 1.13133 0.28989
 C2314 C 0.40358 1.14132 0.26865
 H2315 H 0.38377 1.15586 0.22780
 H2316 H 0.38420 1.06738 0.23867
 H2317 H 0.40396 1.07215 0.27771
 H2318 H 0.40360 1.16065 0.26640
 H2319 H 0.36760 1.08444 0.20205
 H2320 H 0.41947 1.14329 0.30366
 C2321 C 0.38086 0.64604 0.73511
 C2322 C 0.37449 0.62927 0.71742
 C2323 C 0.37780 0.60466 0.72210
 C2324 C 0.38789 0.59693 0.74405
 C2325 C 0.39438 0.61400 0.76165
 C2326 C 0.39063 0.63849 0.75705
 C2327 C 0.40444 0.60632 0.78359
 C2328 C 0.40808 0.58175 0.78828
 C2329 C 0.40177 0.56495 0.77056
 C2330 C 0.39178 0.57245 0.74867
 H2331 H 0.37312 0.59165 0.70845
 H2332 H 0.39540 0.65181 0.77034
 H2333 H 0.40891 0.61943 0.79722
 H2334 H 0.38705 0.55911 0.73537
 H2335 H 0.37828 0.66508 0.73190
 H2336 H 0.40461 0.54592 0.77367
 C2337 C 1.09055 0.87720 0.71208
 C2338 C 1.11568 0.87612 0.71115
 C2339 C 1.12898 0.88269 0.73156
 C2340 C 1.11744 0.89045 0.75252
 C2341 C 1.09217 0.89175 0.75323
 C2342 C 1.07890 0.88499 0.73291
 C2343 C 1.08069 0.90006 0.77412
 C2344 C 1.09423 0.90731 0.79418
 C2345 C 1.11932 0.90540 0.79335
 C2346 C 1.13081 0.89706 0.77276
 H2347 H 1.14835 0.88155 0.73119
 H2348 H 1.05953 0.88586 0.73307
 H2349 H 1.06135 0.90154 0.77454
 H2350 H 1.15018 0.89600 0.77260
 H2351 H 1.07991 0.87234 0.69654
 H2352 H 1.13012 0.91046 0.80872
 C2353 C 1.09003 0.38528 0.21076
 C2354 C 1.11484 0.38080 0.21081
 C2355 C 1.12812 0.38503 0.23184
 C2356 C 1.11663 0.39284 0.25285
 C2357 C 1.09157 0.39683 0.25276
 C2358 C 1.07851 0.39331 0.23150
 C2359 C 1.08004 0.40427 0.27391
 C2360 C 1.09333 0.40806 0.29503
 C2361 C 1.11818 0.40392 0.29493
 C2362 C 1.12972 0.39632 0.27407
 H2363 H 1.14719 0.38129 0.23212
 H2364 H 1.05934 0.39639 0.23102
 H2365 H 1.06091 0.40767 0.27383
 H2366 H 1.14889 0.39326 0.27452
 H2367 H 1.07949 0.38214 0.19468
 H2368 H 1.12871 0.40668 0.31109
 C2369 C 0.65496 0.88180 0.23881
 C2370 C 0.63865 0.87177 0.22217
 C2371 C 0.61396 0.87502 0.22652
 C2372 C 0.60594 0.88862 0.24630
 C2373 C 0.62261 0.89822 0.26278
 C2374 C 0.64706 0.89455 0.25889
 C2375 C 0.61457 0.91111 0.28301
 C2376 C 0.58995 0.91488 0.28687
 C2377 C 0.57363 0.90618 0.26960
 C2378 C 0.58149 0.89303 0.24974
 H2379 H 0.60091 0.86813 0.21389
 H2380 H 0.66015 0.90162 0.27138
 H2381 H 0.62744 0.91752 0.29607
 H2382 H 0.56840 0.88624 0.23710
 H2383 H 0.67406 0.87911 0.23690
 H2384 H 0.55460 0.90929 0.27161
 C2385 C 0.65297 0.38533 0.74327
 C2386 C 0.63715 0.37659 0.72570
 C2387 C 0.61234 0.37828 0.72976
 C2388 C 0.60348 0.38791 0.75130
 C2389 C 0.61958 0.39615 0.76905
 C2390 C 0.64427 0.39500 0.76475
 C2391 C 0.61072 0.40513 0.79088
 C2392 C 0.58591 0.40617 0.79524
 C2393 C 0.57011 0.39818 0.77726
 C2394 C 0.57880 0.38912 0.75554
 H2395 H 0.59993 0.37191 0.71622
 H2396 H 0.65688 0.40126 0.77814
 H2397 H 0.62320 0.41088 0.80464
 H2398 H 0.56619 0.38299 0.74208
 H2399 H 0.67213 0.38402 0.74072
 H2400 H 0.55095 0.39913 0.77990
 C2401 C 1.28361 1.11576 1.08747
 C2402 C 1.28424 1.11877 1.11256
 C2403 C 1.26386 1.11358 1.12614
 C2404 C 1.24283 1.10602 1.11475
 C2405 C 1.24225 1.10315 1.08946
 C2406 C 1.26283 1.10786 1.07602
 C2407 C 1.22112 1.09562 1.07810
 C2408 C 1.20066 1.09078 1.09177
 C2409 C 1.20138 1.09409 1.11683
 C2410 C 1.22225 1.10161 1.12822
 H2411 H 1.26414 1.11627 1.14545
 H2412 H 1.26276 1.10574 1.05665
 H2413 H 1.22075 1.09296 1.05879
 H2414 H 1.22232 1.10390 1.14757
 H2415 H 1.29919 1.11976 1.07673
 H2416 H 1.18570 1.09073 1.12767
 C2417 C 1.26461 0.64890 0.61216
 C2418 C 1.28154 0.63169 0.62000
 C2419 C 1.27625 0.60718 0.61769
 C2420 C 1.25444 0.59998 0.60741
 C2421 C 1.23759 0.61748 0.59957
 C2422 C 1.24284 0.64188 0.60210
 C2423 C 1.21572 0.61030 0.58946
 C2424 C 1.21037 0.58581 0.58709
 C2425 C 1.22739 0.56858 0.59471
 C2426 C 1.24919 0.57558 0.60477
 H2427 H 1.28926 0.59377 0.62349
 H2428 H 1.23013 0.65554 0.59628
 H2429 H 1.20267 0.62378 0.58395
 H2430 H 1.26192 0.56190 0.61054
 H2431 H 1.26818 0.66788 0.61399
 H2432 H 1.22385 0.54960 0.59282
 C2433 C 0.78664 1.12265 0.58844
 C2434 C 0.79042 1.12202 0.61362
 C2435 C 0.77270 1.11107 0.62796
 C2436 C 0.75194 1.10143 0.61759
 C2437 C 0.74865 1.10224 0.59242
 C2438 C 0.76616 1.11278 0.57803
 C2439 C 0.72780 1.09268 0.58208
 C2440 C 0.70989 1.08265 0.59664
 C2441 C 0.71339 1.08213 0.62174
 C2442 C 0.73421 1.09130 0.63207
 H2443 H 0.77425 1.11099 0.64738
 H2444 H 0.76402 1.11343 0.55865
 H2445 H 0.72559 1.09303 0.56270
 H2446 H 0.73632 1.09069 0.65146
 H2447 H 0.79989 1.12995 0.57641
 H2448 H 0.69979 1.07505 0.63352
 C2449 C 0.78555 0.61473 1.08205
 C2450 C 0.78775 0.61628 1.10720
 C2451 C 0.76841 0.60974 1.12171
 C2452 C 0.74697 0.60203 1.11128
 C2453 C 0.74484 0.60057 1.08596
 C2454 C 0.76430 0.60684 1.07151
 C2455 C 0.72332 0.59285 1.07556
 C2456 C 0.70398 0.58645 1.09021
 C2457 C 0.70624 0.58828 1.11534
 C2458 C 0.72754 0.59597 1.12578
 H2459 H 0.76984 0.61126 1.14111
 H2460 H 0.76304 0.60580 1.05208
 H2461 H 0.72176 0.59135 1.05618
 H2462 H 0.72881 0.59715 1.14520
 H2463 H 0.80032 0.61965 1.07057
 H2464 H 0.69144 0.58377 1.12695
 C2465 C 1.28437 0.91028 0.86969
 C2466 C 1.28691 0.88507 0.87157
 C2467 C 1.26769 0.87201 0.88129
 C2468 C 1.24692 0.88366 0.88931
 C2469 C 1.24501 0.90891 0.88799
 C2470 C 1.26378 0.92203 0.87799
 C2471 C 1.22445 0.92055 0.89687
 C2472 C 1.20573 0.90714 0.90690
 C2473 C 1.20760 0.88193 0.90724
 C2474 C 1.22801 0.87033 0.89867
 H2475 H 1.26832 0.85257 0.88190
 H2476 H 1.26265 0.94143 0.87680
 H2477 H 1.22328 0.93998 0.89647
 H2478 H 1.22903 0.85090 0.89948
 H2479 H 1.29870 0.92126 0.86289
 H2480 H 1.19320 0.87108 0.91416
 C2481 C 1.29157 0.41832 0.39052
 C2482 C 1.29505 0.39317 0.38931
 C2483 C 1.27580 0.37829 0.39575
 C2484 C 1.25346 0.38821 0.40186
 C2485 C 1.25028 0.41339 0.40251
 C2486 C 1.26956 0.42826 0.39717
 C2487 C 1.22786 0.42329 0.40842
 C2488 C 1.20849 0.40827 0.41359
 C2489 C 1.21180 0.38322 0.41247
 C2490 C 1.23406 0.37329 0.40677
 H2491 H 1.27748 0.35895 0.39445
 H2492 H 1.26757 0.44761 0.39787
 H2493 H 1.22558 0.44261 0.40940
 H2494 H 1.23606 0.35394 0.40612
 H2495 H 1.30602 0.43056 0.38679
 H2496 H 1.19709 0.37123 0.41599
 C2497 C 0.78899 0.91876 0.38919
 C2498 C 0.79074 0.89397 0.38477
 C2499 C 0.77048 0.87961 0.38782
 C2500 C 0.74870 0.88980 0.39502
 C2501 C 0.74703 0.91477 0.39933
 C2502 C 0.76732 0.92907 0.39646
 C2503 C 0.72513 0.92492 0.40651
 C2504 C 0.70504 0.91033 0.40968
 C2505 C 0.70690 0.88558 0.40516
 C2506 C 0.72852 0.87540 0.39785
 H2507 H 0.77152 0.86055 0.38402
 H2508 H 0.76641 0.94822 0.39975
 H2509 H 0.72383 0.94399 0.41014
 H2510 H 0.72948 0.85627 0.39450
 H2511 H 0.80443 0.93015 0.38703
 H2512 H 0.69152 0.87409 0.40727
 C2513 C 0.78856 0.40942 0.88882
 C2514 C 0.78912 0.38479 0.88333
 C2515 C 0.76849 0.37108 0.88701
 C2516 C 0.74735 0.38198 0.89530
 C2517 C 0.74683 0.40689 0.90020
 C2518 C 0.76763 0.42037 0.89719
 C2519 C 0.72551 0.41788 0.90796
 C2520 C 0.70483 0.40419 0.91122
 C2521 C 0.70557 0.37944 0.90640
 C2522 C 0.72661 0.36844 0.89842
 H2523 H 0.76863 0.35215 0.88255
 H2524 H 0.76764 0.43943 0.90102
 H2525 H 0.72508 0.43693 0.91189
 H2526 H 0.72665 0.34936 0.89472
 H2527 H 0.80431 0.42030 0.88633
 H2528 H 0.68976 0.36861 0.90873
 C2529 C 0.74819 0.84410 1.12052
 C2530 C 0.73009 0.86031 1.12746
 C2531 C 0.73310 0.88497 1.12320
 C2532 C 0.75397 0.89339 1.11229
 C2533 C 0.77213 0.87696 1.10552
 C2534 C 0.76904 0.85235 1.10966
 C2535 C 0.79320 0.88543 1.09501
 C2536 C 0.79642 0.91016 1.09129
 C2537 C 0.77810 0.92630 1.09780
 C2538 C 0.75704 0.91799 1.10817
 H2539 H 0.71910 0.89758 1.12820
 H2540 H 0.78280 0.83951 1.10464
 H2541 H 0.80733 0.87286 1.09032
 H2542 H 0.74325 0.93082 1.11314
 H2543 H 0.74634 0.82504 1.12382
 H2544 H 0.78009 0.94540 1.09485
 C2545 C 0.74173 0.35063 0.61499
 C2546 C 0.72547 0.36661 0.62623
 C2547 C 0.73049 0.39145 0.62505
 C2548 C 0.75096 0.39993 0.61322
 C2549 C 0.76715 0.38355 0.60263
 C2550 C 0.76229 0.35897 0.60357
 C2551 C 0.78803 0.39200 0.59150
 C2552 C 0.79288 0.41678 0.59053
 C2553 C 0.77613 0.43291 0.60051
 C2554 C 0.75551 0.42460 0.61181
 H2555 H 0.71810 0.40447 0.63252
 H2556 H 0.77454 0.34609 0.59562
 H2557 H 0.80074 0.37923 0.58414
 H2558 H 0.74315 0.43750 0.61954
 H2559 H 0.73938 0.33140 0.61593
 H2560 H 0.77896 0.45209 0.59960
 C2561 C 0.21849 0.91187 0.62733
 C2562 C 0.21556 0.88685 0.62446
 C2563 C 0.23433 0.87375 0.61353
 C2564 C 0.25509 0.88518 0.60553
 C2565 C 0.25738 0.91025 0.60800
 C2566 C 0.23900 0.92340 0.61903
 C2567 C 0.27795 0.92173 0.59931
 C2568 C 0.29640 0.90833 0.58838
 C2569 C 0.29412 0.88323 0.58681
 C2570 C 0.27366 0.87182 0.59514
 H2571 H 0.23341 0.85440 0.61201
 H2572 H 0.24040 0.94267 0.62108
 H2573 H 0.27935 0.94106 0.60065
 H2574 H 0.27237 0.85250 0.59342
 H2575 H 0.20449 0.92295 0.63498
 H2576 H 0.30827 0.87229 0.57920
 C2577 C 0.23138 0.35133 1.11379
 C2578 C 0.21485 0.36813 1.12334
 C2579 C 0.22119 0.39266 1.12295
 C2580 C 0.24301 0.40010 1.11299
 C2581 C 0.25918 0.38293 1.10366
 C2582 C 0.25321 0.35862 1.10424
 C2583 C 0.28111 0.39031 1.09399
 C2584 C 0.28710 0.41478 1.09327
 C2585 C 0.27061 0.43175 1.10222
 C2586 C 0.24886 0.42449 1.11205
 H2587 H 0.20881 0.40625 1.12934
 H2588 H 0.26548 0.34515 1.09736
 H2589 H 0.29368 0.37694 1.08745
 H2590 H 0.23661 0.43799 1.11889
 H2591 H 0.22809 0.33224 1.11449
 H2592 H 0.27446 0.45075 1.10153
 C2593 C 0.72217 1.13666 0.89788
 C2594 C 0.70642 1.11889 0.88926
 C2595 C 0.71461 1.09479 0.88925
 C2596 C 0.73768 1.08870 0.89752
 C2597 C 0.75319 1.10683 0.90562
 C2598 C 0.74524 1.13071 0.90577
 C2599 C 0.77646 1.10083 0.91331
 C2600 C 0.78443 1.07679 0.91339
 C2601 C 0.76856 1.05882 0.90585
 C2602 C 0.74549 1.06472 0.89788
 H2603 H 0.70285 1.08049 0.88368
 H2604 H 0.75694 1.14488 0.91182
 H2605 H 0.78848 1.11497 0.91877
 H2606 H 0.73376 1.05050 0.89200
 H2607 H 0.71730 1.15549 0.89752
 H2608 H 0.77394 1.04009 0.90618
 C2609 C 0.73982 0.62067 0.34670
 C2610 C 0.72277 0.62742 0.36397
 C2611 C 0.72792 0.62365 0.38847
 C2612 C 0.74984 0.61332 0.39565
 C2613 C 0.76692 0.60674 0.37813
 C2614 C 0.76170 0.61046 0.35371
 C2615 C 0.78902 0.59684 0.38535
 C2616 C 0.79436 0.59353 0.40989
 C2617 C 0.77706 0.59978 0.42711
 C2618 C 0.75501 0.60956 0.42007
 H2619 H 0.71478 0.62854 0.40191
 H2620 H 0.77459 0.60558 0.34003
 H2621 H 0.80230 0.59233 0.37192
 H2622 H 0.74208 0.61436 0.43374
 H2623 H 0.73634 0.62362 0.32772
 H2624 H 0.78063 0.59710 0.44611
 C2625 C 0.21794 1.09409 0.37892
 C2626 C 0.21319 1.11904 0.38005
 C2627 C 0.23008 1.13368 0.39185
 C2628 C 0.25157 1.12383 0.40099
 C2629 C 0.25600 1.09890 0.39926
 C2630 C 0.23891 1.08418 0.38855
 C2631 C 0.27763 1.08909 0.40789
 C2632 C 0.29537 1.10393 0.41771
 C2633 C 0.29075 1.12877 0.41935
 C2634 C 0.26902 1.13858 0.41124
 H2635 H 0.22742 1.15294 0.39262
 H2636 H 0.24189 1.06497 0.38731
 H2637 H 0.28065 1.06988 0.40684
 H2638 H 0.26607 1.15779 0.41258
 H2639 H 0.20514 1.08188 0.37112
 H2640 H 0.30415 1.14077 0.42644
 C2641 C 0.21259 0.58700 0.87574
 C2642 C 0.20979 0.61220 0.87696
 C2643 C 0.22916 0.62576 0.88571
 C2644 C 0.25045 0.61460 0.89325
 C2645 C 0.25270 0.58936 0.89250
 C2646 C 0.23370 0.57573 0.88363
 C2647 C 0.27387 0.57822 0.90075
 C2648 C 0.29287 0.59211 0.90954
 C2649 C 0.29061 0.61729 0.90940
 C2650 C 0.26958 0.62841 0.90147
 H2651 H 0.22825 0.64519 0.88579
 H2652 H 0.23508 0.55633 0.88292
 H2653 H 0.27534 0.55881 0.90079
 H2654 H 0.26826 0.64783 0.90185
 H2655 H 0.19813 0.57570 0.86971
 H2656 H 0.30518 0.62846 0.91545
 C2657 C 1.10927 1.26229 1.14252
 C2658 C 1.11702 1.27944 1.12575
 C2659 C 1.11411 1.27504 1.10106
 C2660 C 1.10341 1.25377 1.09319
 C2661 C 1.09575 1.23660 1.11023
 C2662 C 1.09878 1.24103 1.13484
 C2663 C 1.08543 1.21517 1.10240
 C2664 C 1.08269 1.21056 1.07773
 C2665 C 1.09002 1.22790 1.06093
 C2666 C 1.10029 1.24932 1.06859
 H2667 H 1.11985 1.28831 1.08805
 H2668 H 1.09307 1.22804 1.14813
 H2669 H 1.08017 1.20178 1.11550
 H2670 H 1.10593 1.26232 1.05528
 H2671 H 1.11154 1.26529 1.16163
 H2672 H 1.08788 1.22481 1.04181
 C2673 C 1.12813 0.78616 0.58699
 C2674 C 1.12928 0.78730 0.61224
 C2675 C 1.12242 0.76723 0.62584
 C2676 C 1.11417 0.74644 0.61447
 C2677 C 1.11269 0.74557 0.58909
 C2678 C 1.11986 0.76550 0.57551
 C2679 C 1.10379 0.72492 0.57779
 C2680 C 1.09623 0.70520 0.59159
 C2681 C 1.09833 0.70617 0.61681
 C2682 C 1.10717 0.72657 0.62813
 H2683 H 1.12360 0.76777 0.64531
 H2684 H 1.11888 0.76519 0.55604
 H2685 H 1.10217 0.72444 0.55835
 H2686 H 1.10838 0.72686 0.64759
 H2687 H 1.13319 0.80145 0.57614
 H2688 H 1.09312 0.69105 0.62784
 C2689 C 0.62595 1.25633 0.65821
 C2690 C 0.63195 1.27387 0.64107
 C2691 C 0.62660 1.26979 0.61670
 C2692 C 0.61543 1.24848 0.60954
 C2693 C 0.60964 1.23088 0.62691
 C2694 C 0.61496 1.23501 0.65120
 C2695 C 0.59895 1.20932 0.61963
 C2696 C 0.59415 1.20505 0.59517
 C2697 C 0.59953 1.22295 0.57816
 C2698 C 0.61005 1.24444 0.58526
 H2699 H 0.63087 1.28333 0.60338
 H2700 H 0.61071 1.22173 0.66478
 H2701 H 0.59509 1.19558 0.63288
 H2702 H 0.61419 1.25779 0.57172
 H2703 H 0.63004 1.25901 0.67707
 H2704 H 0.59572 1.22023 0.55925
 C2705 C 0.64892 0.75128 1.12961
 C2706 C 0.63332 0.77085 1.13356
 C2707 C 0.60915 0.76886 1.12676
 C2708 C 0.60096 0.74791 1.11529
 C2709 C 0.61709 0.72870 1.11081
 C2710 C 0.64093 0.73047 1.11837
 C2711 C 0.60913 0.70798 1.09893
 C2712 C 0.58511 0.70595 1.09179
 C2713 C 0.56916 0.72505 1.09644
 C2714 C 0.57703 0.74588 1.10792
 H2715 H 0.59701 0.78387 1.12959
 H2716 H 0.65349 0.71587 1.11531
 H2717 H 0.62145 0.69318 1.09579
 H2718 H 0.56436 0.76035 1.11116
 H2719 H 0.66756 0.75229 1.13490
 H2720 H 0.55053 0.72379 1.09117
 C2721 C 0.88106 1.26548 0.84887
 C2722 C 0.87550 1.28254 0.86664
 C2723 C 0.87930 1.27646 0.89097
 C2724 C 0.88856 1.25377 0.89743
 C2725 C 0.89410 1.23680 0.87939
 C2726 C 0.89026 1.24285 0.85516
 C2727 C 0.90319 1.21401 0.88590
 C2728 C 0.90661 1.20788 0.91027
 C2729 C 0.90126 1.22505 0.92799
 C2730 C 0.89236 1.24774 0.92166
 H2731 H 0.87537 1.28951 0.90485
 H2732 H 0.89429 1.23007 0.84108
 H2733 H 0.90703 1.20088 0.87207
 H2734 H 0.88834 1.26055 0.93573
 H2735 H 0.87805 1.26955 0.83002
 H2736 H 0.90402 1.22090 0.94686
 C2737 C 0.85746 0.77296 0.38539
 C2738 C 0.87489 0.79004 0.37954
 C2739 C 0.89920 0.78398 0.38257
 C2740 C 0.90600 0.76130 0.39161
 C2741 C 0.88828 0.74436 0.39757
 C2742 C 0.86408 0.75035 0.39429
 C2743 C 0.89506 0.72168 0.40659
 C2744 C 0.91936 0.71560 0.40964
 C2745 C 0.93681 0.73264 0.40376
 C2746 C 0.93020 0.75527 0.39487
 H2747 H 0.91279 0.79706 0.37834
 H2748 H 0.85026 0.73757 0.39864
 H2749 H 0.88145 0.70860 0.41077
 H2750 H 0.94404 0.76803 0.39050
 H2751 H 0.83863 0.77705 0.38292
 H2752 H 0.95564 0.72849 0.40618
 C2753 C 0.38788 1.27470 0.36223
 C2754 C 0.38256 1.29196 0.37986
 C2755 C 0.38696 1.28640 0.40418
 C2756 C 0.39701 1.26406 0.41075
 C2757 C 0.40247 1.24694 0.39281
 C2758 C 0.39768 1.25240 0.36863
 C2759 C 0.41252 1.22462 0.39935
 C2760 C 0.41708 1.21906 0.42365
 C2761 C 0.41176 1.23632 0.44130
 C2762 C 0.40185 1.25860 0.43492
 H2763 H 0.38313 1.29967 0.41789
 H2764 H 0.40163 1.23948 0.35464
 H2765 H 0.41626 1.21136 0.38561
 H2766 H 0.39791 1.27151 0.44892
 H2767 H 0.38443 1.27850 0.34339
 H2768 H 0.41530 1.23255 0.46012
 C2769 C 0.35248 0.76453 0.88815
 C2770 C 0.37007 0.78133 0.88201
 C2771 C 0.39427 0.77565 0.88640
 C2772 C 0.40085 0.75336 0.89633
 C2773 C 0.38303 0.73651 0.90220
 C2774 C 0.35889 0.74235 0.89819
 C2775 C 0.38967 0.71396 0.91152
 C2776 C 0.41394 0.70790 0.91476
 C2777 C 0.43148 0.72491 0.90921
 C2778 C 0.42501 0.74748 0.90016
 H2779 H 0.40797 0.78858 0.88205
 H2780 H 0.34499 0.72964 0.90251
 H2781 H 0.37603 0.70085 0.91551
 H2782 H 0.43890 0.76020 0.89586
 H2783 H 0.33374 0.76834 0.88468
 H2784 H 0.45028 0.72069 0.91181
 C2785 C 1.14492 0.73305 0.88906
 C2786 C 1.12713 0.71601 0.88434
 C2787 C 1.10323 0.72148 0.88991
 C2788 C 1.09711 0.74378 0.89989
 C2789 C 1.11511 0.76090 0.90433
 C2790 C 1.13897 0.75530 0.89896
 C2791 C 1.10888 0.78351 0.91359
 C2792 C 1.08483 0.78931 0.91820
 C2793 C 1.06717 0.77195 0.91425
 C2794 C 1.07325 0.74937 0.90523
 H2795 H 1.08943 0.70833 0.88658
 H2796 H 1.15299 0.76821 0.90219
 H2797 H 1.12259 0.79686 0.91635
 H2798 H 1.05924 0.73642 0.90209
 H2799 H 1.16344 0.72929 0.88471
 H2800 H 1.04855 0.77597 0.91793
 C2801 C 1.09019 0.21133 0.37630
 C2802 C 1.11528 0.21051 0.37460
 C2803 C 1.12849 0.23067 0.38159
 C2804 C 1.11683 0.25139 0.39006
 C2805 C 1.09159 0.25203 0.39174
 C2806 C 1.07845 0.23186 0.38483
 C2807 C 1.07998 0.27274 0.40043
 C2808 C 1.09332 0.29277 0.40763
 C2809 C 1.11839 0.29199 0.40550
 C2810 C 1.13002 0.27153 0.39683
 H2811 H 1.14782 0.23037 0.38005
 H2812 H 1.05911 0.23195 0.38603
 H2813 H 1.06066 0.27309 0.40210
 H2814 H 1.14936 0.27144 0.39549
 H2815 H 1.07963 0.19595 0.37119
 H2816 H 1.12905 0.30732 0.41052
 C2817 C 0.64638 0.74185 0.38098
 C2818 C 0.62994 0.72403 0.37443
 C2819 C 0.60530 0.72868 0.37728
 C2820 C 0.59722 0.75090 0.38603
 C2821 C 0.61397 0.76860 0.39251
 C2822 C 0.63848 0.76386 0.39004
 C2823 C 0.60593 0.79083 0.40120
 C2824 C 0.58132 0.79574 0.40339
 C2825 C 0.56478 0.77812 0.39672
 C2826 C 0.57266 0.75583 0.38822
 H2827 H 0.59239 0.71505 0.37265
 H2828 H 0.65155 0.77729 0.39481
 H2829 H 0.61882 0.80445 0.40598
 H2830 H 0.55957 0.74248 0.38331
 H2831 H 0.66541 0.73901 0.37858
 H2832 H 0.54575 0.78147 0.39843
 C2833 C 0.57878 0.20502 0.89175
 C2834 C 0.60355 0.20345 0.88772
 C2835 C 0.61762 0.22397 0.89072
 C2836 C 0.60719 0.24575 0.89778
 C2837 C 0.58227 0.24719 0.90190
 C2838 C 0.56822 0.22671 0.89881
 C2839 C 0.57194 0.26900 0.90929
 C2840 C 0.58631 0.28923 0.91288
 C2841 C 0.61099 0.28764 0.90839
 C2842 C 0.62134 0.26611 0.90085
 H2843 H 0.63667 0.22307 0.88722
 H2844 H 0.54911 0.22744 0.90193
 H2845 H 0.55291 0.27010 0.91286
 H2846 H 0.64043 0.26534 0.89764
 H2847 H 0.56762 0.18938 0.88964
 H2848 H 0.62230 0.30313 0.91078
 C2849 C 0.85744 0.73304 1.11075
 C2850 C 0.87453 0.71517 1.11639
 C2851 C 0.89894 0.72007 1.11338
 C2852 C 0.90615 0.74244 1.10437
 C2853 C 0.88875 0.76016 1.09853
 C2854 C 0.86448 0.75533 1.10193
 C2855 C 0.89589 0.78245 1.08943
 C2856 C 0.92023 0.78739 1.08612
 C2857 C 0.93741 0.76966 1.09194
 C2858 C 0.93044 0.74737 1.10096
 H2859 H 0.91222 0.70633 1.11753
 H2860 H 0.85092 0.76875 1.09767
 H2861 H 0.88252 0.79613 1.08536
 H2862 H 0.94403 0.73400 1.10526
 H2863 H 0.83855 0.72975 1.11323
 H2864 H 0.95628 0.77303 1.08937
 C2865 C 0.91070 0.21489 0.61132
 C2866 C 0.88569 0.21429 0.61368
 C2867 C 0.87208 0.23490 0.60825
 C2868 C 0.88338 0.25615 0.60121
 C2869 C 0.90860 0.25669 0.59910
 C2870 C 0.92206 0.23586 0.60395
 C2871 C 0.91989 0.27804 0.59221
 C2872 C 0.90624 0.29878 0.58725
 C2873 C 0.88122 0.29809 0.58972
 C2874 C 0.86990 0.27699 0.59662
 H2875 H 0.85281 0.23463 0.61041
 H2876 H 0.94137 0.23589 0.60239
 H2877 H 0.93916 0.27839 0.59016
 H2878 H 0.85059 0.27696 0.59831
 H2879 H 0.92146 0.19912 0.61552
 H2880 H 0.87039 0.31397 0.58622
 C2881 C 0.40981 0.71492 0.61375
 C2882 C 0.38476 0.71466 0.61579
 C2883 C 0.37137 0.73479 0.60822
 C2884 C 0.38282 0.75510 0.59909
 C2885 C 0.40804 0.75531 0.59729
 C2886 C 0.42136 0.73505 0.60450
 C2887 C 0.41950 0.77583 0.58849
 C2888 C 0.40603 0.79614 0.58148
 C2889 C 0.38096 0.79568 0.58337
 C2890 C 0.36946 0.77535 0.59205
 H2891 H 0.35207 0.73489 0.61007
 H2892 H 0.44070 0.73485 0.60319
 H2893 H 0.43882 0.77595 0.58694
 H2894 H 0.35013 0.77553 0.59344
 H2895 H 0.42046 0.69951 0.61934
 H2896 H 0.37023 0.81125 0.57845
 C2897 C 0.35003 0.23826 1.11595
 C2898 C 0.36720 0.22048 1.12157
 C2899 C 0.39150 0.22505 1.11760
 C2900 C 0.39857 0.24704 1.10770
 C2901 C 0.38113 0.26479 1.10203
 C2902 C 0.35694 0.26027 1.10635
 C2903 C 0.38818 0.28681 1.09222
 C2904 C 0.41245 0.29139 1.08801
 C2905 C 0.42962 0.27354 1.09346
 C2906 C 0.42275 0.25155 1.10322
 H2907 H 0.40478 0.21129 1.12169
 H2908 H 0.34335 0.27368 1.10217
 H2909 H 0.37483 0.30057 1.08839
 H2910 H 0.43634 0.23812 1.10733
 H2911 H 0.33121 0.23508 1.11905
 H2912 H 0.44842 0.27661 1.09014
 C2913 C 1.12989 1.08881 0.71583
 C2914 C 1.12649 1.11373 0.71220
 C2915 C 1.11434 1.12687 0.73016
 C2916 C 1.10558 1.11555 0.75079
 C2917 C 1.10846 1.09052 0.75374
 C2918 C 1.12073 1.07734 0.73619
 C2919 C 1.09904 1.07917 0.77419
 C2920 C 1.08718 1.09267 0.79199
 C2921 C 1.08519 1.11773 0.78906
 C2922 C 1.09409 1.12900 0.76861
 H2923 H 1.11246 1.14620 0.72873
 H2924 H 1.12317 1.05811 0.73816
 H2925 H 1.10070 1.05986 0.77605
 H2926 H 1.09206 1.14829 0.76679
 H2927 H 1.13863 1.07779 0.70244
 H2928 H 1.07692 1.12878 0.80273
 C2929 C 1.12375 0.58397 0.21038
 C2930 C 1.12123 0.60900 0.20682
 C2931 C 1.11174 0.62288 0.22573
 C2932 C 1.10502 0.61222 0.24747
 C2933 C 1.10694 0.58710 0.25048
 C2934 C 1.11637 0.57314 0.23181
 C2935 C 1.09931 0.57645 0.27206
 C2936 C 1.09018 0.59075 0.29079
 C2937 C 1.08953 0.61587 0.28783
 C2938 C 1.09660 0.62645 0.26634
 H2939 H 1.11062 0.64226 0.22415
 H2940 H 1.11804 0.55384 0.23377
 H2941 H 1.10002 0.55709 0.27405
 H2942 H 1.09547 0.64581 0.26449
 H2943 H 1.13051 0.57248 0.19625
 H2944 H 1.08342 0.62746 0.30218
 C2945 C 0.61584 1.15278 0.23811
 C2946 C 0.62175 1.13516 0.22106
 C2947 C 0.61622 1.11108 0.22570
 C2948 C 0.60519 1.10458 0.24731
 C2949 C 0.59972 1.12236 0.26460
 C2950 C 0.60497 1.14643 0.25974
 C2951 C 0.58966 1.11569 0.28666
 C2952 C 0.58518 1.09144 0.29174
 C2953 C 0.58994 1.07403 0.27410
 C2954 C 0.59986 1.08053 0.25208
 H2955 H 0.62049 1.09746 0.21247
 H2956 H 0.60091 1.16030 0.27276
 H2957 H 0.58623 1.12921 0.30022
 H2958 H 0.60372 1.06671 0.23896
 H2959 H 0.62008 1.17144 0.23487
 H2960 H 0.58630 1.05527 0.27752
 C2961 C 0.64729 0.61595 0.74304
 C2962 C 0.63132 0.62121 0.72406
 C2963 C 0.60701 0.61556 0.72659
 C2964 C 0.59879 0.60468 0.74777
 C2965 C 0.61508 0.59935 0.76665
 C2966 C 0.63926 0.60509 0.76412
 C2967 C 0.60688 0.58863 0.78787
 C2968 C 0.58253 0.58340 0.79064
 C2969 C 0.56647 0.58865 0.77175
 C2970 C 0.57455 0.59910 0.75044
 H2971 H 0.59459 0.61932 0.71199
 H2972 H 0.65195 0.60127 0.77847
 H2973 H 0.61931 0.58497 0.80251
 H2974 H 0.56181 0.60301 0.73616
 H2975 H 0.66604 0.62045 0.74166
 H2976 H 0.54764 0.58466 0.77352
 C2977 C 0.84196 0.87154 0.74745
 C2978 C 0.85727 0.86362 0.72906
 C2979 C 0.88194 0.86796 0.73104
 C2980 C 0.89119 0.88007 0.75111
 C2981 C 0.87561 0.88785 0.76952
 C2982 C 0.85104 0.88350 0.76750
 C2983 C 0.88486 0.89962 0.78976
 C2984 C 0.90956 0.90372 0.79194
 C2985 C 0.92486 0.89614 0.77339
 C2986 C 0.91576 0.88445 0.75315
 H2987 H 0.89387 0.86215 0.71684
 H2988 H 0.83884 0.88928 0.78147
 H2989 H 0.87291 0.90504 0.80408
 H2990 H 0.92797 0.87873 0.73918
 H2991 H 0.82293 0.86817 0.74647
 H2992 H 0.94391 0.89930 0.77453
 C2993 C 0.89065 0.41766 0.20621
 C2994 C 0.88741 0.39269 0.20501
 C2995 C 0.89157 0.37861 0.22563
 C2996 C 0.89849 0.38933 0.24732
 C2997 C 0.90161 0.41448 0.24843
 C2998 C 0.89780 0.42845 0.22771
 C2999 C 0.90858 0.42514 0.27021
 C3000 C 0.91266 0.41090 0.29076
 C3001 C 0.90914 0.38598 0.28948
 C3002 C 0.90211 0.37529 0.26798
 H3003 H 0.88871 0.35940 0.22496
 H3004 H 0.90015 0.44773 0.22817
 H3005 H 0.91142 0.44435 0.27103
 H3006 H 0.89964 0.35603 0.26748
 H3007 H 0.88756 0.42882 0.19048
 H3008 H 0.91193 0.37472 0.30519
 C3009 C 0.40985 0.89323 0.20857
 C3010 C 0.38500 0.88946 0.20822
 C3011 C 0.37129 0.89683 0.22805
 C3012 C 0.38234 0.90709 0.24825
 C3013 C 0.40742 0.91018 0.24863
 C3014 C 0.42095 0.90349 0.22856
 C3015 C 0.41857 0.91962 0.26918
 C3016 C 0.40495 0.92612 0.28936
 C3017 C 0.37999 0.92331 0.28863
 C3018 C 0.36878 0.91386 0.26829
 H3019 H 0.35216 0.89381 0.22814
 H3020 H 0.44016 0.90589 0.22844
 H3021 H 0.43780 0.92194 0.26949
 H3022 H 0.34955 0.91159 0.26835
 H3023 H 0.42077 0.88804 0.19338
 H3024 H 0.36915 0.92796 0.30405
 C3025 C 0.36766 0.40419 0.71665
 C3026 C 0.36896 0.37889 0.71498
 C3027 C 0.37922 0.36599 0.73442
 C3028 C 0.38745 0.37787 0.75499
 C3029 C 0.38619 0.40317 0.75623
 C3030 C 0.37637 0.41615 0.73691
 C3031 C 0.39480 0.41500 0.77677
 C3032 C 0.40443 0.40177 0.79618
 C3033 C 0.40485 0.37653 0.79494
 C3034 C 0.39662 0.36472 0.77451
 H3035 H 0.37968 0.34655 0.73431
 H3036 H 0.37535 0.43557 0.73745
 H3037 H 0.39438 0.43445 0.77746
 H3038 H 0.39739 0.34528 0.77402
 H3039 H 0.36068 0.41503 0.70197
 H3040 H 0.41156 0.36582 0.80986
 C3041 C 1.15133 0.88672 1.26527
 C3042 C 1.13490 0.87728 1.28203
 C3043 C 1.11029 0.87852 1.27617
 C3044 C 1.10239 0.88961 1.25473
 C3045 C 1.11918 0.89894 1.23835
 C3046 C 1.14359 0.89721 1.24373
 C3047 C 1.11133 0.90967 1.21674
 C3048 C 1.08679 0.91141 1.21131
 C3049 C 1.07021 0.90266 1.22811
 C3050 C 1.07791 0.89179 1.24952
 H3051 H 1.09708 0.87207 1.28877
 H3052 H 1.15676 0.90403 1.23128
 H3053 H 1.12436 0.91609 1.20392
 H3054 H 1.06471 0.88503 1.26196
 H3055 H 1.17043 0.88533 1.26828
 H3056 H 1.05117 0.90412 1.22463
 C3057 C 1.08840 0.38019 0.78665
 C3058 C 1.11340 0.37714 0.78799
 C3059 C 1.12729 0.38313 0.76785
 C3060 C 1.11637 0.39178 0.74664
 C3061 C 1.09121 0.39457 0.74547
 C3062 C 1.07742 0.38881 0.76563
 C3063 C 1.08029 0.40319 0.72422
 C3064 C 1.09424 0.40930 0.70418
 C3065 C 1.11924 0.40630 0.70555
 C3066 C 1.13018 0.39760 0.72653
 H3067 H 1.14653 0.38061 0.76851
 H3068 H 1.05813 0.39094 0.76514
 H3069 H 1.06103 0.40561 0.72344
 H3070 H 1.14947 0.39548 0.72704
 H3071 H 1.07730 0.37601 0.80198
 H3072 H 1.13035 0.41060 0.69026
 C3073 C 0.64855 0.87577 0.76445
 C3074 C 0.63136 0.87070 0.78211
 C3075 C 0.60705 0.87514 0.77688
 C3076 C 0.60005 0.88458 0.75441
 C3077 C 0.61753 0.88971 0.73690
 C3078 C 0.64172 0.88521 0.74210
 C3079 C 0.61054 0.89913 0.71443
 C3080 C 0.58623 0.90332 0.70911
 C3081 C 0.56900 0.89817 0.72669
 C3082 C 0.57584 0.88895 0.74914
 H3083 H 0.59363 0.87156 0.79039
 H3084 H 0.65536 0.88890 0.72885
 H3085 H 0.62396 0.90275 0.70092
 H3086 H 0.56218 0.88519 0.76235
 H3087 H 0.66734 0.87217 0.76782
 H3088 H 0.55019 0.90147 0.72310
 C3089 C 0.62935 0.40823 1.28350
 C3090 C 0.62782 0.38309 1.28658
 C3091 C 0.61736 0.36959 1.26789
 C3092 C 0.60883 0.38076 1.24685
 C3093 C 0.61013 0.40593 1.24432
 C3094 C 0.62041 0.41949 1.26276
 C3095 C 0.60111 0.41710 1.22341
 C3096 C 0.59108 0.40331 1.20481
 C3097 C 0.59060 0.37817 1.20734
 C3098 C 0.59921 0.36703 1.22819
 H3099 H 0.61679 0.35019 1.26902
 H3100 H 0.62152 0.43884 1.26118
 H3101 H 0.60155 0.43648 1.22181
 H3102 H 0.59839 0.34766 1.22967
 H3103 H 0.63654 0.41953 1.29752
 H3104 H 0.58364 0.36699 1.19308
 C3105 C 0.87496 1.09184 1.28335
 C3106 C 0.87649 1.11701 1.28595
 C3107 C 0.88682 1.13035 1.26714
 C3108 C 0.89458 1.11902 1.24605
 C3109 C 0.89320 1.09382 1.24391
 C3110 C 0.88354 1.08039 1.26277
 C3111 C 0.90137 1.08250 1.22291
 C3112 C 0.91034 1.09617 1.20368
 C3113 C 0.91069 1.12137 1.20578
 C3114 C 0.90322 1.13263 1.22683
 H3115 H 0.88751 1.14976 1.26813
 H3116 H 0.88238 1.06103 1.26151
 H3117 H 0.90099 1.06310 1.22170
 H3118 H 0.90398 1.15202 1.22795
 H3119 H 0.86783 1.08074 1.29758
 H3120 H 0.91666 1.13254 1.19107
 C3121 C 0.87140 0.59241 0.78117
 C3122 C 0.87060 0.61758 0.78300
 C3123 C 0.87936 0.63148 0.76383
 C3124 C 0.88923 0.62051 0.74343
 C3125 C 0.89027 0.59521 0.74192
 C3126 C 0.88115 0.58133 0.76084
 C3127 C 0.90051 0.58426 0.72161
 C3128 C 0.90977 0.59831 0.70275
 C3129 C 0.90839 0.62347 0.70447
 C3130 C 0.89825 0.63445 0.72458
 H3131 H 0.87849 0.65091 0.76479
 H3132 H 0.88178 0.56190 0.76002
 H3133 H 0.90159 0.56485 0.72065
 H3134 H 0.89748 0.65388 0.72538
 H3135 H 0.86500 0.58127 0.79573
 H3136 H 0.91488 0.63475 0.69005
 C3137 C 0.39192 1.14028 0.76833
 C3138 C 0.38503 1.12294 0.78531
 C3139 C 0.38844 1.09849 0.78017
 C3140 C 0.39880 1.09145 0.75833
 C3141 C 0.40569 1.10909 0.74142
 C3142 C 0.40216 1.13343 0.74658
 C3143 C 0.41571 1.10211 0.71947
 C3144 C 0.41883 1.07771 0.71405
 C3145 C 0.41220 1.06029 0.73105
 C3146 C 0.40231 1.06710 0.75305
 H3147 H 0.38332 1.08503 0.79326
 H3148 H 0.40723 1.14716 0.73377
 H3149 H 0.42044 1.11566 0.70631
 H3150 H 0.39724 1.05334 0.76581
 H3151 H 0.38916 1.15922 0.77181
 H3152 H 0.41461 1.04136 0.72727
 C3153 C 0.38709 0.65122 1.26562
 C3154 C 0.37767 0.63485 1.28256
 C3155 C 0.37928 0.61008 1.27720
 C3156 C 0.39015 0.60203 1.25587
 C3157 C 0.39919 0.61879 1.23920
 C3158 C 0.39754 0.64331 1.24427
 C3159 C 0.40947 0.61079 1.21759
 C3160 C 0.41102 0.58612 1.21241
 C3161 C 0.40257 0.56958 1.22953
 C3162 C 0.39219 0.57744 1.25096
 H3163 H 0.37303 0.59684 1.28995
 H3164 H 0.40420 0.65646 1.23161
 H3165 H 0.41566 0.62381 1.20455
 H3166 H 0.38563 0.56426 1.26363
 H3167 H 0.38555 0.67041 1.26816
 H3168 H 0.40392 0.55046 1.22631
 C3169 C 1.11673 1.28315 0.91139
 C3170 C 1.11476 1.28699 0.88630
 C3171 C 1.10405 1.26900 0.87220
 C3172 C 1.09646 1.24748 0.88267
 C3173 C 1.09862 1.24397 0.90776
 C3174 C 1.10852 1.26203 0.92198
 C3175 C 1.09102 1.22238 0.91819
 C3176 C 1.08170 1.20402 0.90373
 C3177 C 1.08018 1.20757 0.87868
 C3178 C 1.08727 1.22915 0.86828
 H3179 H 1.10295 1.27091 0.85282
 H3180 H 1.11017 1.25974 0.94129
 H3181 H 1.09217 1.21999 0.93752
 H3182 H 1.08579 1.23138 0.84896
 H3183 H 1.12403 1.29674 0.92311
 H3184 H 1.07365 1.19355 0.86699
 C3185 C 1.12592 0.78776 0.40837
 C3186 C 1.12565 0.79032 0.38303
 C3187 C 1.11585 0.77155 0.36926
 C3188 C 1.10787 0.75039 0.38038
 C3189 C 1.10863 0.74812 0.40570
 C3190 C 1.11736 0.76708 0.41951
 C3191 C 1.10076 0.72690 0.41680
 C3192 C 1.09235 0.70772 0.40285
 C3193 C 1.09219 0.71005 0.37760
 C3194 C 1.09969 0.73118 0.36651
 H3195 H 1.11585 0.77254 0.34979
 H3196 H 1.11784 0.76581 0.43897
 H3197 H 1.10088 0.72547 0.43625
 H3198 H 1.09925 0.73242 0.34705
 H3199 H 1.13226 0.80203 0.41985
 H3200 H 1.08633 0.69542 0.36632
 C3201 C 0.61735 1.26458 0.35672
 C3202 C 0.62464 1.28192 0.37346
 C3203 C 0.62220 1.27709 0.39819
 C3204 C 0.61274 1.25520 0.40608
 C3205 C 0.60552 1.23791 0.38905
 C3206 C 0.60787 1.24279 0.36443
 C3207 C 0.59619 1.21599 0.39690
 C3208 C 0.59392 1.21102 0.42160
 C3209 C 0.60116 1.22833 0.43839
 C3210 C 0.61045 1.25024 0.43071
 H3211 H 0.62750 1.29042 0.41128
 H3212 H 0.60250 1.22970 0.35113
 H3213 H 0.59102 1.20263 0.38377
 H3214 H 0.61585 1.26330 0.44402
 H3215 H 0.61937 1.26769 0.33760
 H3216 H 0.59937 1.22501 0.45751
 C3217 C 0.61216 0.78386 0.90888
 C3218 C 0.61631 0.78397 0.88395
 C3219 C 0.61051 0.76364 0.87036
 C3220 C 0.60145 0.74311 0.88165
 C3221 C 0.59784 0.74297 0.90684
 C3222 C 0.60294 0.76357 0.92022
 C3223 C 0.58938 0.72220 0.91820
 C3224 C 0.58433 0.70161 0.90468
 C3225 C 0.58792 0.70198 0.87966
 C3226 C 0.59641 0.72252 0.86825
 H3227 H 0.61394 0.76346 0.85118
 H3228 H 0.60016 0.76387 0.93950
 H3229 H 0.58646 0.72210 0.93747
 H3230 H 0.59916 0.72226 0.84897
 H3231 H 0.61637 0.79943 0.91966
 H3232 H 0.58434 0.68621 0.86893
 C3233 C 0.91170 1.28833 1.11857
 C3234 C 0.88674 1.29266 1.11728
 C3235 C 0.87227 1.27454 1.10722
 C3236 C 0.88233 1.25279 1.09913
 C3237 C 0.90731 1.24903 1.10038
 C3238 C 0.92180 1.26695 1.11006
 C3239 C 0.91739 1.22739 1.09200
 C3240 C 0.90275 1.20909 1.08279
 C3241 C 0.87780 1.21295 1.08219
 C3242 C 0.86774 1.23458 1.09007
 H3243 H 0.85300 1.27666 1.10666
 H3244 H 0.94103 1.26446 1.11107
 H3245 H 0.93664 1.22496 1.09245
 H3246 H 0.84850 1.23698 1.08924
 H3247 H 0.92379 1.30182 1.12526
 H3248 H 0.86589 1.19910 1.07586
 C3249 C 0.84736 0.74240 0.63566
 C3250 C 0.86093 0.76296 0.64040
 C3251 C 0.88460 0.76415 0.63226
 C3252 C 0.89433 0.74535 0.61861
 C3253 C 0.88028 0.72500 0.61337
 C3254 C 0.85697 0.72353 0.62231
 C3255 C 0.88976 0.70645 0.59931
 C3256 C 0.91324 0.70775 0.59073
 C3257 C 0.92716 0.72790 0.59607
 C3258 C 0.91772 0.74666 0.60978
 H3259 H 0.89501 0.78012 0.63563
 H3260 H 0.84604 0.70801 0.61862
 H3261 H 0.87916 0.69067 0.59561
 H3262 H 0.92875 0.76209 0.61361
 H3263 H 0.82907 0.74122 0.64185
 H3264 H 0.94542 0.72899 0.58975
 C3265 C 0.35147 1.25535 0.62628
 C3266 C 0.36684 1.27340 0.63495
 C3267 C 0.39176 1.26899 0.63455
 C3268 C 0.40101 1.24785 0.62433
 C3269 C 0.38524 1.23040 0.61522
 C3270 C 0.36056 1.23411 0.61671
 C3271 C 0.39435 1.20959 0.60447
 C3272 C 0.41913 1.20604 0.60224
 C3273 C 0.43476 1.22343 0.61143
 C3274 C 0.42577 1.24413 0.62245
 H3275 H 0.40412 1.28258 0.64061
 H3276 H 0.34822 1.22073 0.61012
 H3277 H 0.38212 1.19609 0.59792
 H3278 H 0.43818 1.25734 0.62922
 H3279 H 0.33222 1.25730 0.62730
 H3280 H 0.45394 1.22117 0.60981
 C3281 C 0.41089 0.78392 1.12466
 C3282 C 0.38571 0.78669 1.12456
 C3283 C 0.37187 0.76730 1.11621
 C3284 C 0.38274 0.74595 1.10836
 C3285 C 0.40791 0.74368 1.10838
 C3286 C 0.42180 0.76278 1.11656
 C3287 C 0.41875 0.72240 1.10012
 C3288 C 0.40466 0.70329 1.09191
 C3289 C 0.37959 0.70561 1.09255
 C3290 C 0.36874 0.72673 1.10060
 H3291 H 0.35252 0.76818 1.11676
 H3292 H 0.44115 0.76144 1.11659
 H3293 H 0.43809 0.72091 1.09964
 H3294 H 0.34938 0.72803 1.10071
 H3295 H 0.42247 0.79840 1.13006
 H3296 H 0.36828 0.69099 1.08685
 C3297 C 0.90677 0.71409 0.87579
 C3298 C 0.88163 0.71425 0.87418
 C3299 C 0.86896 0.73508 0.88082
 C3300 C 0.88118 0.75547 0.88890
 C3301 C 0.90645 0.75509 0.89054
 C3302 C 0.91905 0.73428 0.88393
 C3303 C 0.91861 0.77543 0.89902
 C3304 C 0.90577 0.79603 0.90611
 C3305 C 0.88067 0.79627 0.90391
 C3306 C 0.86851 0.77624 0.89540
 H3307 H 0.84962 0.73554 0.87935
 H3308 H 0.93840 0.73358 0.88511
 H3309 H 0.93794 0.77500 0.90074
 H3310 H 0.84917 0.77693 0.89410
 H3311 H 0.91694 0.69819 0.87094
 H3312 H 0.87039 0.81205 0.90890
 C3313 C 0.90527 0.21598 0.37747
 C3314 C 0.88021 0.21582 0.37482
 C3315 C 0.86704 0.23649 0.38114
 C3316 C 0.87874 0.25706 0.38970
 C3317 C 0.90394 0.25702 0.39212
 C3318 C 0.91700 0.23633 0.38603
 C3319 C 0.91563 0.27760 0.40069
 C3320 C 0.90242 0.29821 0.40710
 C3321 C 0.87737 0.29804 0.40440
 C3322 C 0.86566 0.27772 0.39578
 H3323 H 0.84776 0.23674 0.37896
 H3324 H 0.93631 0.23588 0.38786
 H3325 H 0.93492 0.27741 0.40284
 H3326 H 0.84636 0.27817 0.39394
 H3327 H 0.91585 0.20024 0.37304
 H3328 H 0.86677 0.31377 0.40886
 C3329 C 0.35139 0.74308 0.38743
 C3330 C 0.36791 0.72744 0.37617
 C3331 C 0.39210 0.73441 0.37512
 C3332 C 0.39955 0.75620 0.38511
 C3333 C 0.38264 0.77178 0.39577
 C3334 C 0.35863 0.76505 0.39684
 C3335 C 0.38999 0.79390 0.40511
 C3336 C 0.41422 0.80048 0.40444
 C3337 C 0.43100 0.78438 0.39448
 C3338 C 0.42371 0.76257 0.38474
 H3339 H 0.40547 0.72251 0.36749
 H3340 H 0.34539 0.77681 0.40491
 H3341 H 0.37674 0.80612 0.41244
 H3342 H 0.43701 0.75068 0.37695
 H3343 H 0.33252 0.73897 0.38808
 H3344 H 0.44985 0.78860 0.39424
 C3345 C 0.40885 0.21174 0.88504
 C3346 C 0.38370 0.20913 0.88455
 C3347 C 0.36946 0.22818 0.89334
 C3348 C 0.38000 0.24981 0.90069
 C3349 C 0.40517 0.25216 0.90051
 C3350 C 0.41940 0.23283 0.89310
 C3351 C 0.41571 0.27385 0.90757
 C3352 C 0.40139 0.29346 0.91456
 C3353 C 0.37632 0.29103 0.91420
 C3354 C 0.36576 0.26942 0.90753
 H3355 H 0.35013 0.22700 0.89283
 H3356 H 0.43873 0.23416 0.89313
 H3357 H 0.43502 0.27535 0.90792
 H3358 H 0.34643 0.26813 0.90752
 H3359 H 0.42061 0.19724 0.87951
 H3360 H 0.36477 0.30595 0.91903
 C3361 C 1.08730 0.71429 1.12390
 C3362 C 1.11221 0.71031 1.12202
 C3363 C 1.12636 0.72903 1.11276
 C3364 C 1.11601 0.75078 1.10523
 C3365 C 1.09100 0.75415 1.10649
 C3366 C 1.07682 0.73584 1.11597
 C3367 C 1.08064 0.77573 1.09817
 C3368 C 1.09509 0.79416 1.08899
 C3369 C 1.12007 0.79078 1.08867
 C3370 C 1.13039 0.76926 1.09653
 H3371 H 1.14566 0.72721 1.11221
 H3372 H 1.05758 0.73811 1.11713
 H3373 H 1.06137 0.77797 1.09848
 H3374 H 1.14967 0.76710 1.09579
 H3375 H 1.07558 0.70039 1.13042
 H3376 H 1.13174 0.80485 1.08242
 C3377 C 1.09052 0.21397 0.62225
 C3378 C 1.11557 0.21349 0.62472
 C3379 C 1.12860 0.23413 0.61895
 C3380 C 1.11687 0.25487 0.61051
 C3381 C 1.09169 0.25515 0.60786
 C3382 C 1.07867 0.23462 0.61388
 C3383 C 1.08005 0.27583 0.59892
 C3384 C 1.09336 0.29605 0.59231
 C3385 C 1.11833 0.29566 0.59544
 C3386 C 1.12998 0.27529 0.60450
 H3387 H 1.14788 0.23410 0.62118
 H3388 H 1.05938 0.23447 0.61194
 H3389 H 1.06080 0.27597 0.59645
 H3390 H 1.14927 0.27543 0.60656
 H3391 H 1.08011 0.19822 0.62644
 H3392 H 1.12889 0.31120 0.59080
 C3393 C 0.59484 0.71219 0.62374
 C3394 C 0.61994 0.71232 0.62580
 C3395 C 0.63247 0.73248 0.61754
 C3396 C 0.62016 0.75224 0.60753
 C3397 C 0.59492 0.75198 0.60570
 C3398 C 0.58245 0.73182 0.61380
 C3399 C 0.58263 0.77187 0.59580
 C3400 C 0.59529 0.79194 0.58751
 C3401 C 0.62039 0.79196 0.58951
 C3402 C 0.63269 0.77234 0.59943
 H3403 H 0.65178 0.73300 0.61932
 H3404 H 0.56312 0.73122 0.61246
 H3405 H 0.56329 0.77161 0.59422
 H3406 H 0.65203 0.77290 0.60079
 H3407 H 0.58476 0.69679 0.62969
 H3408 H 0.63053 0.80735 0.58362
 C3409 C 0.64802 0.23275 1.10594
 C3410 C 0.63196 0.21695 1.11725
 C3411 C 0.60728 0.22261 1.11636
 C3412 C 0.59900 0.24384 1.10548
 C3413 C 0.61546 0.25998 1.09537
 C3414 C 0.63987 0.25411 1.09536
 C3415 C 0.60730 0.28190 1.08580
 C3416 C 0.58274 0.28778 1.08579
 C3417 C 0.56644 0.27106 1.09500
 C3418 C 0.57450 0.24936 1.10487
 H3419 H 0.59429 0.21033 1.12371
 H3420 H 0.65274 0.26626 1.08757
 H3421 H 0.62019 0.29463 1.07907
 H3422 H 0.56158 0.23701 1.11225
 H3423 H 0.66714 0.22953 1.10647
 H3424 H 0.54739 0.27478 1.09470
 C3425 C 1.28789 1.09058 0.87847
 C3426 C 1.28871 1.11579 0.87688
 C3427 C 1.26831 1.12927 0.88318
 C3428 C 1.24730 1.11773 0.89060
 C3429 C 1.24668 1.09237 0.89199
 C3430 C 1.26714 1.07900 0.88598
 C3431 C 1.22569 1.08084 0.89955
 C3432 C 1.20535 1.09437 0.90599
 C3433 C 1.20613 1.11957 0.90416
 C3434 C 1.22685 1.13112 0.89655
 H3435 H 1.26863 1.14868 0.88179
 H3436 H 1.26708 1.05957 0.88702
 H3437 H 1.22536 1.06144 0.90103
 H3438 H 1.22690 1.15054 0.89544
 H3439 H 1.30343 1.07979 0.87393
 H3440 H 1.19062 1.13040 0.90868
 C3441 C 1.28712 0.62114 0.40546
 C3442 C 1.28736 0.62371 0.38027
 C3443 C 1.26745 0.61623 0.36683
 C3444 C 1.24720 0.60712 0.37849
 C3445 C 1.24696 0.60511 0.40388
 C3446 C 1.26716 0.61186 0.41714
 C3447 C 1.22648 0.59656 0.41557
 C3448 C 1.20624 0.58985 0.40219
 C3449 C 1.20672 0.59192 0.37695
 C3450 C 1.22697 0.60046 0.36522
 H3451 H 1.26738 0.61840 0.34744
 H3452 H 1.26739 0.61033 0.43658
 H3453 H 1.22637 0.59484 0.43500
 H3454 H 1.22675 0.60198 0.34578
 H3455 H 1.30235 0.62667 0.41615
 H3456 H 1.19124 0.58711 0.36626
 C3457 C 0.76088 1.12404 0.35625
 C3458 C 0.77917 1.12789 0.37322
 C3459 C 0.77545 1.12155 0.39737
 C3460 C 0.75391 1.11073 0.40432
 C3461 C 0.73577 1.10662 0.38698
 C3462 C 0.73935 1.11361 0.36306
 C3463 C 0.71435 1.09560 0.39383
 C3464 C 0.71067 1.08878 0.41786
 C3465 C 0.72886 1.09281 0.43493
 C3466 C 0.75028 1.10364 0.42823
 H3467 H 0.78960 1.12424 0.41047
 H3468 H 0.72564 1.11071 0.34955
 H3469 H 0.70032 1.09289 0.38061
 H3470 H 0.76397 1.10652 0.44176
 H3471 H 0.76345 1.12884 0.33754
 H3472 H 0.72644 1.08761 0.45354
 C3473 C 0.78000 0.62599 0.90769
 C3474 C 0.78099 0.62692 0.88240
 C3475 C 0.76112 0.61896 0.86907
 C3476 C 0.74076 0.61005 0.88073
 C3477 C 0.74006 0.60908 0.90613
 C3478 C 0.75978 0.61718 0.91942
 C3479 C 0.71977 0.59982 0.91777
 C3480 C 0.70021 0.59132 0.90429
 C3481 C 0.70109 0.59273 0.87902
 C3482 C 0.72110 0.60199 0.86738
 H3483 H 0.76141 0.61987 0.84959
 H3484 H 0.75964 0.61653 0.93891
 H3485 H 0.71943 0.59874 0.93723
 H3486 H 0.72124 0.60273 0.84790
 H3487 H 0.79510 0.63170 0.91845
 H3488 H 0.68615 0.58675 0.86818
 C3489 C 1.26576 0.85477 1.11670
 C3490 C 1.28305 0.87212 1.12227
 C3491 C 1.27751 0.89651 1.11815
 C3492 C 1.25514 0.90343 1.10860
 C3493 C 1.23803 0.88577 1.10292
 C3494 C 1.24352 0.86151 1.10708
 C3495 C 1.21565 0.89269 1.09338
 C3496 C 1.21001 0.91709 1.08970
 C3497 C 1.22717 0.93448 1.09539
 C3498 C 1.24955 0.92772 1.10465
 H3499 H 1.29071 0.91009 1.12207
 H3500 H 1.23059 0.84773 1.10300
 H3501 H 1.20244 0.87915 1.08932
 H3502 H 1.26244 0.94151 1.10884
 H3503 H 1.26933 0.83591 1.12004
 H3504 H 1.22330 0.95337 1.09253
 C3505 C 1.25534 0.35131 0.61839
 C3506 C 1.27424 0.36723 0.62262
 C3507 C 1.27185 0.39135 0.61552
 C3508 C 1.25077 0.39950 0.60431
 C3509 C 1.23192 0.38328 0.60005
 C3510 C 1.23437 0.35925 0.60713
 C3511 C 1.21073 0.39144 0.58920
 C3512 C 1.20793 0.41569 0.58288
 C3513 C 1.22675 0.43170 0.58697
 C3514 C 1.24811 0.42363 0.59748
 H3515 H 1.28644 0.40368 0.61851
 H3516 H 1.22003 0.34665 0.60414
 H3517 H 1.19607 0.37913 0.58643
 H3518 H 1.26238 0.43630 0.60058
 H3519 H 1.25668 0.33271 0.62402
 H3520 H 1.22482 0.45049 0.58216
 C3521 C 0.74513 0.83832 0.62746
 C3522 C 0.76436 0.85334 0.63320
 C3523 C 0.76418 0.87720 0.62506
 C3524 C 0.74502 0.88600 0.61119
 C3525 C 0.72568 0.87078 0.60553
 C3526 C 0.72589 0.84698 0.61377
 C3527 C 0.70621 0.87978 0.59221
 C3528 C 0.70564 0.90390 0.58493
 C3529 C 0.72513 0.91874 0.59013
 C3530 C 0.74477 0.90982 0.60304
 H3531 H 0.77918 0.88872 0.62914
 H3532 H 0.71120 0.83511 0.60967
 H3533 H 0.69099 0.86840 0.58855
 H3534 H 0.75947 0.92169 0.60713
 H3535 H 0.74502 0.81984 0.63361
 H3536 H 0.72486 0.93743 0.58467
 C3537 C 0.79065 0.41296 1.10762
 C3538 C 0.79251 0.38815 1.11220
 C3539 C 0.77234 0.37370 1.10881
 C3540 C 0.75040 0.38399 1.10159
 C3541 C 0.74862 0.40903 1.09750
 C3542 C 0.76893 0.42330 1.10032
 C3543 C 0.72659 0.41937 1.09064
 C3544 C 0.70639 0.40492 1.08749
 C3545 C 0.70835 0.38006 1.09162
 C3546 C 0.73013 0.36969 1.09868
 H3547 H 0.77352 0.35461 1.11255
 H3548 H 0.76796 0.44249 1.09711
 H3549 H 0.72524 0.43852 1.08724
 H3550 H 0.73112 0.35049 1.10180
 H3551 H 0.80603 0.42442 1.10992
 H3552 H 0.69294 0.36864 1.08939
 C3553 C 0.73906 1.11262 1.15041
 C3554 C 0.72119 1.11909 1.13365
 C3555 C 0.72478 1.11415 1.10915
 C3556 C 0.74619 1.10351 1.10137
 C3557 C 0.76427 1.09753 1.11830
 C3558 C 0.76042 1.10192 1.14280
 C3559 C 0.78605 1.08773 1.11039
 C3560 C 0.79009 1.08401 1.08572
 C3561 C 0.77176 1.08954 1.06913
 C3562 C 0.75000 1.09916 1.07688
 H3563 H 0.71096 1.11876 1.09613
 H3564 H 0.77408 1.09746 1.15603
 H3565 H 0.80014 1.08378 1.12333
 H3566 H 0.73627 1.10351 1.06368
 H3567 H 0.73677 1.11642 1.16935
 H3568 H 0.77434 1.08651 1.05008
 C3569 C 0.74467 0.62431 0.64778
 C3570 C 0.72583 0.62912 0.63152
 C3571 C 0.72929 0.62478 0.60688
 C3572 C 0.75109 0.61512 0.59869
 C3573 C 0.76967 0.60989 0.61533
 C3574 C 0.76636 0.61479 0.63978
 C3575 C 0.79127 0.59984 0.60728
 C3576 C 0.79470 0.59508 0.58275
 C3577 C 0.77622 0.60051 0.56630
 C3578 C 0.75456 0.61036 0.57420
 H3579 H 0.71484 0.62827 0.59422
 H3580 H 0.78048 0.61108 0.65274
 H3581 H 0.80558 0.59606 0.62004
 H3582 H 0.74054 0.61423 0.56118
 H3583 H 0.74256 0.62786 0.66680
 H3584 H 0.77849 0.59691 0.54731
 C3585 C 0.23668 1.14713 0.61418
 C3586 C 0.21966 1.12937 0.61913
 C3587 C 0.22538 1.10521 0.61444
 C3588 C 0.24786 1.09885 0.60516
 C3589 C 0.26492 1.11684 0.60051
 C3590 C 0.25909 1.14093 0.60498
 C3591 C 0.28763 1.11041 0.59181
 C3592 C 0.29359 1.08618 0.58779
 C3593 C 0.27631 1.06850 0.59207
 C3594 C 0.25367 1.07477 0.60066
 H3595 H 0.21231 1.09141 0.61794
 H3596 H 0.27194 1.15496 0.60157
 H3597 H 0.30086 1.12418 0.58882
 H3598 H 0.24078 1.06075 0.60397
 H3599 H 0.23279 1.16583 0.61789
 H3600 H 0.28033 1.04975 0.58878
 C3601 C 0.22875 0.64112 1.10672
 C3602 C 0.21185 0.62330 1.11185
 C3603 C 0.21777 0.59911 1.10765
 C3604 C 0.24042 0.59276 1.09887
 C3605 C 0.25732 0.61084 1.09397
 C3606 C 0.25124 0.63496 1.09778
 C3607 C 0.28019 0.60448 1.08585
 C3608 C 0.28654 0.58024 1.08286
 C3609 C 0.26954 0.56240 1.08745
 C3610 C 0.24663 0.56861 1.09529
 H3611 H 0.20480 0.58524 1.11130
 H3612 H 0.26401 0.64903 1.09422
 H3613 H 0.29330 0.61833 1.08262
 H3614 H 0.23389 0.55452 1.09887
 H3615 H 0.22479 0.65986 1.11016
 H3616 H 0.27405 0.54361 1.08503
 C3617 C 0.73616 0.84917 0.89109
 C3618 C 0.71917 0.86630 0.88331
 C3619 C 0.72393 0.89081 0.88619
 C3620 C 0.74550 0.89816 0.89667
 C3621 C 0.76263 0.88079 0.90417
 C3622 C 0.75774 0.85634 0.90138
 C3623 C 0.78452 0.88814 0.91394
 C3624 C 0.78960 0.91267 0.91622
 C3625 C 0.77220 0.92978 0.90928
 C3626 C 0.75035 0.92260 0.89958
 H3627 H 0.71076 0.90410 0.88045
 H3628 H 0.77066 0.84278 0.90700
 H3629 H 0.79791 0.87480 0.91898
 H3630 H 0.73737 0.93616 0.89411
 H3631 H 0.73286 0.83018 0.88886
 H3632 H 0.77562 0.94879 0.91116
 C3633 C 0.73806 0.35719 0.38869
 C3634 C 0.72009 0.37382 0.38206
 C3635 C 0.72435 0.39850 0.38494
 C3636 C 0.74639 0.40646 0.39386
 C3637 C 0.76433 0.38954 0.40031
 C3638 C 0.75994 0.36497 0.39781
 C3639 C 0.78650 0.39746 0.40886
 C3640 C 0.79110 0.42212 0.41094
 C3641 C 0.77315 0.43883 0.40453
 C3642 C 0.75094 0.43106 0.39615
 H3643 H 0.71055 0.41151 0.38018
 H3644 H 0.77354 0.35177 0.40258
 H3645 H 0.80036 0.38444 0.41341
 H3646 H 0.73739 0.44429 0.39131
 H3647 H 0.73542 0.33812 0.38629
 H3648 H 0.77627 0.45791 0.40620
 C3649 C 0.24181 0.86089 0.38796
 C3650 C 0.22396 0.87714 0.38028
 C3651 C 0.22794 0.90193 0.38204
 C3652 C 0.24960 0.91042 0.39136
 C3653 C 0.26755 0.89390 0.39877
 C3654 C 0.26348 0.86919 0.39704
 C3655 C 0.28933 0.90230 0.40770
 C3656 C 0.29344 0.92707 0.40975
 C3657 C 0.27541 0.94338 0.40252
 C3658 C 0.25369 0.93513 0.39334
 H3659 H 0.21413 0.91454 0.37631
 H3660 H 0.27706 0.85630 0.40265
 H3661 H 0.30324 0.88951 0.41273
 H3662 H 0.24008 0.94805 0.38785
 H3663 H 0.23913 0.84172 0.38649
 H3664 H 0.27802 0.96254 0.40417
 C3665 C 0.23057 0.35545 0.88457
 C3666 C 0.21303 0.37286 0.87886
 C3667 C 0.21778 0.39718 0.88316
 C3668 C 0.23961 0.40395 0.89367
 C3669 C 0.25698 0.38620 0.89965
 C3670 C 0.25234 0.36205 0.89483
 C3671 C 0.27876 0.39290 0.91020
 C3672 C 0.28359 0.41715 0.91463
 C3673 C 0.26618 0.43466 0.90879
 C3674 C 0.24435 0.42811 0.89848
 H3675 H 0.20426 0.41067 0.87897
 H3676 H 0.26548 0.34823 0.89915
 H3677 H 0.29222 0.37933 0.91433
 H3678 H 0.23127 0.44196 0.89411
 H3679 H 0.22732 0.33662 0.88120
 H3680 H 0.26954 0.45347 0.91213
   
