data_POSCAR
  _audit_creation_date              2014-09-24
  _audit_creation_method            'ToBaCCo'
  _symmetry_space_group_name_H-M    'P1'
  _symmetry_Int_Tables_number       1
  _symmetry_cell_setting            triclinic
  loop_
  _symmetry_equiv_pos_as_xyz
 x,y,z
_cell_length_a 40.8779
_cell_length_b 42.8514
_cell_length_c 49.2568
_cell_angle_alpha 90.008600
_cell_angle_beta 89.997600
_cell_angle_gamma 90.048600
loop_
  _atom_site_label
  _atom_site_type_symbol
  _atom_site_fract_x
  _atom_site_fract_y
  _atom_site_fract_z
Zr1 Zr 0.24822 0.24872 0.29785
 O2 O 0.27394 0.27222 0.32909
 O3 O 0.21579 0.22082 0.32031
 O4 O 0.21740 0.27930 0.31978
 O5 O 0.30753 0.19266 0.28766
 O6 O 0.19352 0.30886 0.28677
 O7 O 0.27850 0.21821 0.32038
 O8 O 0.18416 0.19838 0.28754
 O9 O 0.20558 0.25207 0.27443
 O10 O 0.24624 0.20812 0.27435
 O11 O 0.25346 0.28988 0.27489
 O12 O 0.29227 0.24795 0.27541
 Zr13 Zr 0.25177 0.25110 0.20277
 Zr14 Zr 0.21199 0.29164 0.25001
 Zr15 Zr 0.28834 0.20841 0.25054
 Zr16 Zr 0.20484 0.21223 0.25013
 O17 O 0.34013 0.20859 0.24992
 O18 O 0.15430 0.22325 0.24880
 O19 O 0.24682 0.20950 0.22547
 O20 O 0.20818 0.25193 0.22549
 O21 O 0.25409 0.29205 0.22593
 O22 O 0.29407 0.24800 0.22653
 C23 C 0.19198 0.20334 0.31252
 C24 C 0.30073 0.19882 0.31261
 C25 C 0.19852 0.30156 0.31176
 O26 O 0.16035 0.29101 0.24734
 O27 O 0.19818 0.31223 0.21297
 O28 O 0.22380 0.28357 0.18028
 C29 C 0.20482 0.30588 0.18802
 O30 O 0.31765 0.30401 0.28687
 Zr31 Zr 0.29530 0.28772 0.25056
 O32 O 0.28404 0.27923 0.18035
 O33 O 0.21935 0.34047 0.25244
 O34 O 0.29041 0.33698 0.25101
 O35 O 0.34622 0.27826 0.24992
 O36 O 0.31342 0.30433 0.21316
 C37 C 0.30627 0.29849 0.18820
 O38 O 0.22450 0.22887 0.17173
 O39 O 0.28072 0.15958 0.25135
 O40 O 0.28051 0.21900 0.18058
 O41 O 0.30437 0.18934 0.21359
 O42 O 0.20740 0.16283 0.25178
 O43 O 0.18589 0.19268 0.21372
 C44 C 0.29950 0.19682 0.18860
 H45 H 0.24533 0.18885 0.28541
 H46 H 0.18880 0.25301 0.21348
 H47 H 0.31439 0.24653 0.21568
 H48 H 0.25499 0.30843 0.28680
 H49 H 0.14202 0.20405 0.25352
 H50 H 0.15303 0.31303 0.24816
 H51 H 0.19750 0.35038 0.25122
 H52 H 0.31198 0.34598 0.24619
 H53 H 0.18519 0.15501 0.25614
 H54 H 0.30264 0.14982 0.25240
 H55 H 0.34731 0.18650 0.24947
 H56 H 0.35761 0.29799 0.24528
 H57 H 0.16639 0.17986 0.21795
 H58 H 0.23342 0.23617 0.15410
 H59 H 0.26503 0.26468 0.34665
 H60 H 0.33358 0.32067 0.28244
 Zr61 Zr 0.75161 0.75076 0.29718
 O62 O 0.72587 0.72712 0.32832
 O63 O 0.78393 0.77865 0.31973
 O64 O 0.78249 0.72028 0.31911
 O65 O 0.69223 0.80673 0.28708
 O66 O 0.80645 0.69074 0.28611
 O67 O 0.72131 0.78117 0.31975
 O68 O 0.81562 0.80117 0.28704
 O69 O 0.79429 0.74752 0.27380
 O70 O 0.75355 0.79140 0.27376
 O71 O 0.74648 0.70962 0.27417
 O72 O 0.70758 0.75149 0.27473
 Zr73 Zr 0.74818 0.74853 0.20210
 Zr74 Zr 0.78798 0.70797 0.24933
 Zr75 Zr 0.71148 0.79109 0.24993
 Zr76 Zr 0.79499 0.78740 0.24957
 O77 O 0.65969 0.79083 0.24927
 O78 O 0.84555 0.77648 0.24824
 O79 O 0.75303 0.79010 0.22488
 O80 O 0.79174 0.74773 0.22487
 O81 O 0.74591 0.70754 0.22520
 O82 O 0.70585 0.75153 0.22585
 C83 C 0.80775 0.79615 0.31200
 C84 C 0.69906 0.80054 0.31202
 C85 C 0.80144 0.69807 0.31110
 O86 O 0.83963 0.70870 0.24671
 O87 O 0.80190 0.68749 0.21229
 O88 O 0.77628 0.71614 0.17959
 C89 C 0.79531 0.69386 0.18733
 O90 O 0.68232 0.69535 0.28608
 Zr91 Zr 0.70466 0.71176 0.24982
 O92 O 0.71596 0.72039 0.17962
 O93 O 0.78071 0.65913 0.25168
 O94 O 0.70965 0.66251 0.25014
 O95 O 0.65372 0.72113 0.24919
 O96 O 0.68656 0.69524 0.21239
 C97 C 0.69371 0.70113 0.18744
 O98 O 0.77543 0.77085 0.17111
 O99 O 0.71902 0.83993 0.25083
 O100 O 0.71938 0.78065 0.17995
 O101 O 0.69547 0.81022 0.21301
 O102 O 0.79234 0.83679 0.25132
 O103 O 0.81394 0.80705 0.21320
 C104 C 0.70036 0.80280 0.18801
 H105 H 0.75442 0.81065 0.28485
 H106 H 0.81114 0.74671 0.21287
 H107 H 0.68554 0.75299 0.21499
 H108 H 0.74498 0.69105 0.28606
 H109 H 0.85779 0.79568 0.25301
 H110 H 0.84699 0.68669 0.24752
 H111 H 0.80258 0.64926 0.25049
 H112 H 0.68811 0.65348 0.24530
 H113 H 0.81453 0.84463 0.25573
 H114 H 0.69707 0.84965 0.25190
 H115 H 0.65248 0.81291 0.24888
 H116 H 0.64237 0.70140 0.24453
 H117 H 0.83340 0.81992 0.21748
 H118 H 0.76652 0.76356 0.15346
 H119 H 0.73473 0.73462 0.34592
 H120 H 0.66646 0.67864 0.28161
 Zr121 Zr 0.75190 0.24921 -0.29783
 O122 O 0.72632 0.27286 -0.32903
 O123 O 0.78429 0.22136 -0.32034
 O124 O 0.78285 0.27982 -0.31961
 O125 O 0.69241 0.19320 -0.28791
 O126 O 0.80670 0.30928 -0.28649
 O127 O 0.72159 0.21885 -0.32050
 O128 O 0.81584 0.19882 -0.28761
 O129 O 0.79449 0.25248 -0.27434
 O130 O 0.75376 0.20852 -0.27446
 O131 O 0.74666 0.29028 -0.27476
 O132 O 0.70780 0.24836 -0.27546
 Zr133 Zr 0.74812 0.25124 -0.20275
 Zr134 Zr 0.78807 0.29196 -0.24981
 Zr135 Zr 0.71161 0.20872 -0.25071
 Zr136 Zr 0.79511 0.21255 -0.25017
 O137 O 0.65981 0.20886 -0.25011
 O138 O 0.84567 0.22358 -0.24874
 O139 O 0.75307 0.20973 -0.22558
 O140 O 0.79176 0.25216 -0.22541
 O141 O 0.74591 0.29227 -0.22579
 O142 O 0.70587 0.24822 -0.22659
 C143 C 0.80806 0.20385 -0.31258
 C144 C 0.69928 0.19948 -0.31282
 C145 C 0.80177 0.30204 -0.31150
 O146 O 0.83970 0.29133 -0.24700
 O147 O 0.80173 0.31246 -0.21271
 O148 O 0.77603 0.28368 -0.18013
 C149 C 0.79501 0.30605 -0.18779
 O150 O 0.68252 0.30446 -0.28679
 Zr151 Zr 0.70475 0.28803 -0.25050
 O152 O 0.71583 0.27927 -0.18030
 O153 O 0.78081 0.34079 -0.25217
 O154 O 0.70973 0.33729 -0.25077
 O155 O 0.65382 0.27854 -0.24999
 O156 O 0.68656 0.30447 -0.21308
 C157 C 0.69364 0.29854 -0.18813
 O158 O 0.77531 0.22893 -0.17174
 O159 O 0.71915 0.15989 -0.25172
 O160 O 0.71929 0.21903 -0.18072
 O161 O 0.69553 0.18945 -0.21386
 O162 O 0.79246 0.16316 -0.25196
 O163 O 0.81399 0.19288 -0.21379
 C164 C 0.70033 0.19684 -0.18884
 H165 H 0.75464 0.18929 -0.28558
 H166 H 0.81111 0.25321 -0.21335
 H167 H 0.68553 0.24669 -0.21577
 H168 H 0.74520 0.30888 -0.28662
 H169 H 0.85793 0.20441 -0.25352
 H170 H 0.84706 0.31335 -0.24775
 H171 H 0.80267 0.35070 -0.25086
 H172 H 0.68817 0.34627 -0.24596
 H173 H 0.81466 0.15534 -0.25632
 H174 H 0.69720 0.15014 -0.25285
 H175 H 0.65261 0.18677 -0.24977
 H176 H 0.64244 0.29824 -0.24530
 H177 H 0.83347 0.18006 -0.21805
 H178 H 0.76635 0.23615 -0.15411
 H179 H 0.73525 0.26539 -0.34660
 H180 H 0.66661 0.32110 -0.28233
 Zr181 Zr 0.24772 0.75422 -0.29717
 O182 O 0.27392 0.73263 -0.32914
 O183 O 0.21516 0.78296 -0.31874
 O184 O 0.21747 0.72399 -0.32022
 O185 O 0.30649 0.81000 -0.28478
 O186 O 0.19388 0.69282 -0.28816
 O187 O 0.27766 0.78635 -0.31848
 O188 O 0.18278 0.80262 -0.28538
 O189 O 0.20502 0.74930 -0.27401
 O190 O 0.24522 0.79365 -0.27228
 O191 O 0.25332 0.71215 -0.27548
 O192 O 0.29162 0.75428 -0.27448
 Zr193 Zr 0.25067 0.74768 -0.20203
 Zr194 Zr 0.21178 0.70882 -0.25082
 Zr195 Zr 0.28716 0.79261 -0.24831
 Zr196 Zr 0.20376 0.78800 -0.24839
 O197 O 0.33896 0.79292 -0.24754
 O198 O 0.15330 0.77649 -0.24723
 O199 O 0.24553 0.79014 -0.22345
 O200 O 0.20731 0.74737 -0.22506
 O201 O 0.25361 0.70775 -0.22648
 O202 O 0.29310 0.75213 -0.22552
 C203 C 0.19078 0.79955 -0.31058
 C204 C 0.29984 0.80559 -0.31007
 C205 C 0.19898 0.70106 -0.31290
 O206 O 0.16011 0.70870 -0.24846
 O207 O 0.19803 0.68653 -0.21456
 O208 O 0.22184 0.71464 -0.18075
 C209 C 0.20326 0.69224 -0.18922
 O210 O 0.31782 0.69890 -0.28741
 Zr211 Zr 0.29491 0.71353 -0.25083
 O212 O 0.28280 0.71864 -0.18045
 O213 O 0.21966 0.66021 -0.25477
 O214 O 0.29039 0.66429 -0.25302
 O215 O 0.34570 0.72361 -0.24956
 O216 O 0.31280 0.69539 -0.21387
 C217 C 0.30530 0.69997 -0.18878
 O218 O 0.22350 0.76859 -0.17027
 O219 O 0.27915 0.84137 -0.24752
 O220 O 0.27932 0.77902 -0.17875
 O221 O 0.30305 0.81019 -0.21081
 O222 O 0.20564 0.83747 -0.24885
 O223 O 0.18473 0.80605 -0.21143
 C224 C 0.29830 0.80157 -0.18609
 H225 H 0.24416 0.81340 -0.28266
 H226 H 0.18780 0.74563 -0.21325
 H227 H 0.31334 0.75328 -0.21454
 H228 H 0.25515 0.69413 -0.28796
 H229 H 0.14085 0.79575 -0.25136
 H230 H 0.15308 0.68663 -0.24988
 H231 H 0.19792 0.64999 -0.25387
 H232 H 0.31194 0.65524 -0.24825
 H233 H 0.18332 0.84510 -0.25305
 H234 H 0.30099 0.85137 -0.24836
 H235 H 0.34595 0.81503 -0.24638
 H236 H 0.35728 0.70390 -0.24532
 H237 H 0.16516 0.81892 -0.21528
 H238 H 0.23237 0.76049 -0.15289
 H239 H 0.26497 0.74090 -0.34643
 H240 H 0.33400 0.68237 -0.28332
 Zr241 Zr 1.25161 1.25211 0.79721
 O242 O 1.22501 1.22901 0.82816
 O243 O 1.28408 1.27968 0.81981
 O244 O 1.28199 1.22181 0.81987
 O245 O 1.19496 1.31045 0.78603
 O246 O 1.30790 1.19322 0.78728
 O247 O 1.22154 1.28320 0.81915
 O248 O 1.31665 1.30137 0.78726
 O249 O 1.29455 1.24835 0.77426
 O250 O 1.25465 1.29248 0.77344
 O251 O 1.24645 1.21075 0.77461
 O252 O 1.20792 1.25343 0.77435
 Zr253 Zr 1.24926 1.24878 0.70216
 Zr254 Zr 1.28829 1.20862 0.75020
 Zr255 Zr 1.21295 1.29269 0.74919
 Zr256 Zr 1.29624 1.28782 0.74966
 O257 O 1.16120 1.29276 0.74811
 O258 O 1.34663 1.27613 0.74870
 O259 O 1.25471 1.29058 0.72453
 O260 O 1.29257 1.24799 0.72532
 O261 O 1.24642 1.20815 0.72570
 O262 O 1.20675 1.25284 0.72549
 C263 C 1.30838 1.29662 0.81217
 C264 C 1.20128 1.30428 0.81106
 C265 C 1.30265 1.20089 0.81216
 O266 O 1.34000 1.20837 0.74780
 O267 O 1.30382 1.18871 0.71350
 O268 O 1.27728 1.21582 0.68029
 C269 C 1.29757 1.19481 0.68846
 O270 O 1.18205 1.19806 0.78631
 Zr271 Zr 1.20487 1.21332 0.74987
 O272 O 1.21693 1.22066 0.67973
 O273 O 1.28010 1.15999 0.75309
 O274 O 1.20896 1.16400 0.75081
 O275 O 1.15402 1.22304 0.74860
 O276 O 1.18690 1.19636 0.71255
 C277 C 1.19440 1.20173 0.68758
 O278 O 1.27705 1.27015 0.67099
 O279 O 1.22088 1.34151 0.74970
 O280 O 1.22134 1.28116 0.67948
 O281 O 1.19930 1.31274 0.71196
 O282 O 1.29405 1.33724 0.75108
 O283 O 1.31608 1.30705 0.71344
 C284 C 1.20432 1.30497 0.68706
 H285 H 1.25588 1.31186 0.78434
 H286 H 1.31212 1.24682 0.71350
 H287 H 1.18667 1.25461 0.71436
 H288 H 1.24484 1.19235 0.78669
 H289 H 1.35913 1.29514 0.75360
 H290 H 1.34710 1.18631 0.74915
 H291 H 1.30189 1.14990 0.75238
 H292 H 1.18724 1.15525 0.74611
 H293 H 1.31617 1.34489 0.75595
 H294 H 1.19905 1.35155 0.75017
 H295 H 1.15433 1.31489 0.74710
 H296 H 1.14254 1.20323 0.74443
 H297 H 1.33551 1.31986 0.71793
 H298 H 1.26814 1.26269 0.65340
 H299 H 1.23359 1.23661 0.84582
 H300 H 1.16609 1.18135 0.78209
 Zr301 Zr 0.74816 0.74733 0.79786
 O302 O 0.77458 0.77032 0.82899
 O303 O 0.71567 0.71955 0.82026
 O304 O 0.71765 0.77743 0.82059
 O305 O 0.80506 0.68920 0.78657
 O306 O 0.69166 0.80605 0.78807
 O307 O 0.77830 0.71624 0.81974
 O308 O 0.68331 0.69792 0.78753
 O309 O 0.70529 0.75107 0.77484
 O310 O 0.74535 0.70707 0.77392
 O311 O 0.75324 0.78883 0.77546
 O312 O 0.79193 0.74627 0.77510
 Zr313 Zr 0.75081 0.75118 0.70285
 Zr314 Zr 0.71148 0.79095 0.75097
 Zr315 Zr 0.78714 0.70713 0.74977
 Zr316 Zr 0.70383 0.71172 0.75005
 O317 O 0.83888 0.70724 0.74882
 O318 O 0.65339 0.72323 0.74901
 O319 O 0.74545 0.70923 0.72502
 O320 O 0.70742 0.75171 0.72591
 O321 O 0.75342 0.79168 0.72656
 O322 O 0.79326 0.74713 0.72626
 C323 C 0.69145 0.70259 0.81249
 C324 C 0.79865 0.69526 0.81162
 C325 C 0.69691 0.79830 0.81293
 O326 O 0.65978 0.79103 0.74842
 O327 O 0.69607 0.81106 0.71433
 O328 O 0.72274 0.78417 0.68105
 C329 C 0.70240 0.80512 0.68928
 O330 O 0.81758 0.80162 0.78737
 Zr331 Zr 0.79491 0.78653 0.75081
 O332 O 0.78312 0.77950 0.68061
 O333 O 0.71946 0.83959 0.75413
 O334 O 0.79064 0.83582 0.75199
 O335 O 0.84580 0.77700 0.74956
 O336 O 0.81289 0.80379 0.71359
 C337 C 0.80552 0.79851 0.68859
 O338 O 0.72320 0.72988 0.67152
 O339 O 0.77937 0.65828 0.75002
 O340 O 0.77893 0.71902 0.68008
 O341 O 0.80101 0.68736 0.71248
 O342 O 0.70618 0.66230 0.75128
 O343 O 0.68422 0.69262 0.71369
 C344 C 0.79604 0.69525 0.68760
 H345 H 0.74414 0.68763 0.78473
 H346 H 0.68791 0.75288 0.71405
 H347 H 0.81338 0.74549 0.71516
 H348 H 0.75475 0.80716 0.78763
 H349 H 0.64095 0.70415 0.75378
 H350 H 0.65259 0.81306 0.74987
 H351 H 0.69764 0.84961 0.75341
 H352 H 0.81235 0.84467 0.74737
 H353 H 0.68406 0.65456 0.75605
 H354 H 0.80123 0.64831 0.75050
 H355 H 0.84585 0.68514 0.74772
 H356 H 0.85721 0.79688 0.74551
 H357 H 0.66482 0.67971 0.71807
 H358 H 0.73213 0.73747 0.65399
 H359 H 0.76596 0.76260 0.84659
 H360 H 0.83349 0.81841 0.78326
 Zr361 Zr 1.25206 0.74755 0.20225
 O362 O 1.22563 0.77062 0.17120
 O363 O 1.28452 0.71988 0.17975
 O364 O 1.28259 0.77774 0.17962
 O365 O 1.19523 0.68925 0.21332
 O366 O 1.30851 0.80637 0.21222
 O367 O 1.22203 0.71646 0.18026
 O368 O 1.31687 0.69816 0.21241
 O369 O 1.29493 0.75130 0.22528
 O370 O 1.25488 0.70722 0.22606
 O371 O 1.24695 0.78897 0.22476
 O372 O 1.20827 0.74634 0.22497
 Zr373 Zr 1.24936 0.75108 0.29723
 Zr374 Zr 1.28871 0.79109 0.24927
 Zr375 Zr 1.21307 0.70711 0.25019
 Zr376 Zr 1.29640 0.71187 0.24994
 O377 O 1.16132 0.70713 0.25111
 O378 O 1.34682 0.72350 0.25097
 O379 O 1.25475 0.70921 0.27495
 O380 O 1.29277 0.75176 0.27420
 O381 O 1.24674 0.79167 0.27365
 O382 O 1.20691 0.74702 0.27381
 C383 C 1.30870 0.70288 0.18746
 C384 C 1.20171 0.69539 0.18830
 C385 C 1.30329 0.79865 0.18734
 O386 O 1.34041 0.79129 0.25181
 O387 O 1.30415 0.81104 0.28598
 O388 O 1.27736 0.78402 0.31914
 C389 C 1.29775 0.80497 0.31101
 O390 O 1.18263 0.80172 0.21286
 Zr391 Zr 1.20526 0.78651 0.24939
 O392 O 1.21703 0.77925 0.31956
 O393 O 1.28070 0.83972 0.24627
 O394 O 1.20952 0.83582 0.24838
 O395 O 1.15437 0.77687 0.25055
 O396 O 1.18720 0.80356 0.28666
 C397 C 1.19458 0.79821 0.31165
 O398 O 1.27697 0.72971 0.32849
 O399 O 1.22082 0.65827 0.24982
 O400 O 1.22127 0.71883 0.31990
 O401 O 1.19922 0.68719 0.28743
 O402 O 1.29407 0.66244 0.24863
 O403 O 1.31605 0.69271 0.28624
 C404 C 1.20419 0.69505 0.31232
 H405 H 1.25610 0.68781 0.21521
 H406 H 1.31227 0.75292 0.28607
 H407 H 1.18679 0.74531 0.28489
 H408 H 1.24545 0.80734 0.21264
 H409 H 1.35927 0.70447 0.24613
 H410 H 1.34758 0.81334 0.25044
 H411 H 1.30251 0.84978 0.24704
 H412 H 1.18781 0.84460 0.25302
 H413 H 1.31618 0.65475 0.24383
 H414 H 1.19896 0.64827 0.24931
 H415 H 1.15437 0.68500 0.25215
 H416 H 1.14295 0.79671 0.25466
 H417 H 1.33549 0.67990 0.28183
 H418 H 1.26804 0.73721 0.34605
 H419 H 1.23425 0.76299 0.15357
 H420 H 1.16672 0.81846 0.21702
 Zr421 Zr 0.74863 1.25281 0.20248
 O422 O 0.77508 1.23012 0.17123
 O423 O 0.71612 1.28066 0.18023
 O424 O 0.71820 1.22273 0.17958
 O425 O 0.80558 1.31093 0.21411
 O426 O 0.69221 1.19385 0.21196
 O427 O 0.77878 1.28414 0.18080
 O428 O 0.68378 1.30206 0.21306
 O429 O 0.70575 1.24882 0.22548
 O430 O 0.74580 1.29289 0.22663
 O431 O 0.75372 1.21117 0.22469
 O432 O 0.79239 1.25379 0.22527
 Zr433 Zr 0.75126 1.24829 0.29751
 Zr434 Zr 0.71195 1.20879 0.24916
 Zr435 Zr 0.78757 1.29275 0.25081
 Zr436 Zr 0.70427 1.28799 0.25047
 O437 O 0.83932 1.29274 0.25181
 O438 O 0.65385 1.27636 0.25142
 O439 O 0.74588 1.29038 0.27554
 O440 O 0.70788 1.24785 0.27442
 O441 O 0.75389 1.20796 0.27357
 O442 O 0.79371 1.25260 0.27412
 C443 C 0.69192 1.29757 0.18807
 C444 C 0.79919 1.30505 0.18903
 C445 C 0.69749 1.20175 0.18713
 O446 O 0.66025 1.20860 0.25166
 O447 O 0.69647 1.18840 0.28568
 O448 O 0.72313 1.21509 0.31911
 C449 C 0.70278 1.19417 0.31078
 O450 O 0.81804 1.19855 0.21272
 Zr451 Zr 0.79539 1.21337 0.24936
 O452 O 0.78364 1.21989 0.31958
 O453 O 0.71997 1.16018 0.24578
 O454 O 0.79113 1.16408 0.24794
 O455 O 0.84627 1.22303 0.25061
 O456 O 0.81343 1.19592 0.28646
 C457 C 0.80608 1.20101 0.31149
 O458 O 0.72366 1.26929 0.32897
 O459 O 0.77978 1.34158 0.25077
 O460 O 0.77936 1.28037 0.32046
 O461 O 0.80138 1.31232 0.28822
 O462 O 0.70664 1.33742 0.24954
 O463 O 0.68460 1.30678 0.28691
 C464 C 0.79643 1.30425 0.31306
 H465 H 0.74460 1.31240 0.21592
 H466 H 0.68837 1.24656 0.28627
 H467 H 0.81383 1.25421 0.28522
 H468 H 0.75525 1.19292 0.21243
 H469 H 0.64139 1.29545 0.24674
 H470 H 0.65306 1.18657 0.25008
 H471 H 0.69815 1.15012 0.24643
 H472 H 0.81284 1.15524 0.25250
 H473 H 0.68453 1.34518 0.24479
 H474 H 0.80163 1.35160 0.25037
 H475 H 0.84627 1.31486 0.25304
 H476 H 0.85770 1.20315 0.25455
 H477 H 0.66520 1.31969 0.28259
 H478 H 0.73260 1.26158 0.34646
 H479 H 0.76647 1.23796 0.15367
 H480 H 0.83396 1.18177 0.21674
 N481 N 0.55856 1.03320 0.02909
 N482 N 0.58127 1.05409 0.03525
 N483 N 0.53523 0.96774 0.04779
 N484 N 0.54161 0.94740 0.06710
 N485 N 0.55842 0.96751 0.02934
 N486 N 0.58126 0.94693 0.03574
 N487 N 0.53529 1.03324 0.04747
 N488 N 0.54144 1.05406 0.06645
 C489 C 0.56997 1.06721 0.05853
 C490 C 0.57015 0.93427 0.05924
 N491 N 0.44152 0.96761 0.02968
 N492 N 0.41902 0.94656 0.03592
 N493 N 0.46500 1.03324 0.04761
 N494 N 0.45867 1.05367 0.06686
 N495 N 0.44169 1.03327 0.02927
 N496 N 0.41879 1.05378 0.03571
 N497 N 0.46490 0.96776 0.04796
 N498 N 0.45902 0.94693 0.06699
 Mn499 Mn 0.50010 1.00049 0.04785
 C500 C 0.43054 0.93359 0.05917
 C501 C 0.43002 1.06663 0.05909
 N502 N 0.55818 0.96696 -0.02944
 N503 N 0.58077 0.94601 -0.03563
 N504 N 0.53499 1.03236 -0.04813
 N505 N 0.54133 1.05263 -0.06750
 N506 N 0.55826 1.03263 -0.02975
 N507 N 0.58113 1.05316 -0.03627
 N508 N 0.53478 0.96687 -0.04771
 N509 N 0.54074 0.94596 -0.06666
 Mn510 Mn 0.55875 1.00008 -0.00020
 C511 C 0.56927 0.93280 -0.05881
 C512 C 0.56994 1.06575 -0.05977
 N513 N 0.44144 1.03288 -0.02955
 N514 N 0.41888 1.05381 -0.03585
 N515 N 0.46440 0.96701 -0.04750
 N516 N 0.45804 0.94613 -0.06639
 N517 N 0.44124 0.96720 -0.02904
 N518 N 0.41841 0.94640 -0.03500
 N519 N 0.46465 1.03254 -0.04798
 N520 N 0.45859 1.05315 -0.06715
 Mn521 Mn 0.44108 1.00025 0.00009
 Mn522 Mn 0.49970 0.99969 -0.04799
 Cl523 Cl 0.49992 1.00014 -0.00006
 C524 C 0.43019 1.06655 -0.05928
 C525 C 0.42950 0.93314 -0.05825
 N526 N 1.03499 0.53478 0.54755
 N527 N 1.05640 0.54162 0.56666
 N528 N 0.96587 0.55622 0.52943
 N529 N 0.94420 0.57798 0.53564
 N530 N 0.96622 0.53431 0.54806
 N531 N 0.94478 0.54050 0.56730
 N532 N 1.03458 0.55667 0.52890
 N533 N 1.05565 0.57902 0.53494
 C534 C 1.06945 0.56907 0.55839
 C535 C 0.93089 0.56761 0.55919
 N536 N 0.96544 0.53375 0.45225
 N537 N 0.94419 0.54013 0.43293
 N538 N 1.03414 0.55624 0.47029
 N539 N 1.05578 0.57805 0.46405
 N540 N 1.03415 0.53407 0.45188
 N541 N 1.05577 0.54015 0.43274
 N542 N 0.96543 0.55584 0.47074
 N543 N 0.94419 0.57789 0.46435
 Mn544 Mn 0.99999 0.55655 0.49983
 C545 C 0.93076 0.56750 0.44088
 C546 C 1.06940 0.56746 0.44070
 N547 N 0.96666 0.46707 0.54828
 N548 N 0.94552 0.46060 0.56768
 N549 N 1.03521 0.44528 0.52942
 N550 N 1.05674 0.42339 0.53562
 N551 N 1.03537 0.46743 0.54785
 N552 N 1.05700 0.46124 0.56696
 N553 N 0.96651 0.44504 0.52974
 N554 N 0.94528 0.42296 0.53614
 Mn555 Mn 1.00083 0.50090 0.54814
 C556 C 0.93204 0.43323 0.55971
 C557 C 1.07050 0.43390 0.55895
 N558 N 1.03439 0.46684 0.45214
 N559 N 1.05547 0.46028 0.43272
 N560 N 0.96589 0.44459 0.47105
 N561 N 0.94449 0.42249 0.46494
 N562 N 0.96566 0.46656 0.45247
 N563 N 0.94410 0.46008 0.43338
 N564 N 1.03462 0.44495 0.47079
 N565 N 1.05584 0.42288 0.46446
 Mn566 Mn 0.99991 0.50031 0.45200
 Mn567 Mn 1.00054 0.44466 0.50026
 Cl568 Cl 1.00032 0.50060 0.50006
 C569 C 1.06902 0.43302 0.44081
 C570 C 0.93073 0.43272 0.44151
 N571 N 0.96612 0.53355 -0.04800
 N572 N 0.94449 0.53968 -0.06706
 N573 N 1.03539 0.55539 -0.03022
 N574 N 1.05669 0.57731 -0.03715
 N575 N 1.03475 0.53321 -0.04862
 N576 N 1.05538 0.53946 -0.06844
 N577 N 0.96649 0.55582 -0.02969
 N578 N 0.94504 0.57776 -0.03592
 C579 C 0.93119 0.56710 -0.05916
 C580 C 1.06930 0.56677 -0.06095
 N581 N 1.03554 0.53351 0.04714
 N582 N 1.05712 0.53957 0.06626
 N583 N 0.96689 0.55613 0.02910
 N584 N 0.94533 0.57801 0.03539
 N585 N 0.96686 0.53402 0.04756
 N586 N 0.94537 0.54020 0.06676
 N587 N 1.03570 0.55555 0.02862
 N588 N 1.05743 0.57730 0.03481
 Mn589 Mn 1.00114 0.55608 -0.00054
 C590 C 1.07092 0.56672 0.05821
 C591 C 0.93178 0.56751 0.05884
 N592 N 1.03423 0.46608 -0.04821
 N593 N 1.05560 0.45987 -0.06746
 N594 N 0.96555 0.44432 -0.02937
 N595 N 0.94381 0.42254 -0.03556
 N596 N 0.96554 0.46643 -0.04782
 N597 N 0.94387 0.46035 -0.06691
 N598 N 1.03436 0.44406 -0.02968
 N599 N 1.05586 0.42217 -0.03597
 Mn600 Mn 1.00015 0.49981 -0.04831
 C601 C 1.06923 0.43263 -0.05947
 C602 C 0.93014 0.43312 -0.05892
 N603 N 0.96641 0.46684 0.04776
 N604 N 0.94516 0.46079 0.06716
 N605 N 1.03491 0.44421 0.02912
 N606 N 1.05635 0.42226 0.03549
 N607 N 1.03510 0.46644 0.04748
 N608 N 1.05660 0.46028 0.06666
 N609 N 0.96609 0.44464 0.02938
 N610 N 0.94455 0.42285 0.03590
 Mn611 Mn 1.00096 0.50021 0.04764
 Mn612 Mn 1.00024 0.44395 -0.00014
 Cl613 Cl 1.00063 0.50002 -0.00034
 C614 C 0.93137 0.43351 0.05939
 C615 C 1.07004 0.43287 0.05886
 N616 N 0.55844 1.03267 0.52925
 N617 N 0.58125 1.05343 0.53539
 N618 N 0.53538 0.96726 0.54806
 N619 N 0.54212 0.94726 0.56755
 N620 N 0.55852 0.96710 0.52957
 N621 N 0.58171 0.94695 0.53614
 N622 N 0.53518 1.03278 0.54763
 N623 N 0.54146 1.05358 0.56662
 C624 C 0.57005 1.06659 0.55865
 C625 C 0.57085 0.93443 0.55976
 N626 N 0.44170 0.96652 0.52989
 N627 N 0.41829 0.94674 0.53701
 N628 N 0.46477 1.03247 0.54775
 N629 N 0.45809 1.05280 0.56701
 N630 N 0.44146 1.03217 0.52941
 N631 N 0.41824 1.05234 0.53584
 N632 N 0.46491 0.96702 0.54834
 N633 N 0.45788 0.94779 0.56837
 Mn634 Mn 0.50007 0.99989 0.54809
 C635 C 0.42903 0.93490 0.56095
 C636 C 0.42924 1.06535 0.55921
 N637 N 0.55844 0.96659 0.47079
 N638 N 0.58135 0.94602 0.46446
 N639 N 0.53510 1.03202 0.45214
 N640 N 0.54187 1.05192 0.43254
 N641 N 0.55835 1.03218 0.47053
 N642 N 0.58159 1.05225 0.46383
 N643 N 0.53514 0.96649 0.45244
 N644 N 0.54147 0.94589 0.43331
 Mn645 Mn 0.55879 0.99962 0.50004
 C646 C 0.57014 0.93297 0.44114
 C647 C 0.57069 1.06472 0.44021
 N648 N 0.44136 1.03184 0.47069
 N649 N 0.41848 1.05244 0.46437
 N650 N 0.46481 0.96635 0.45261
 N651 N 0.45817 0.94609 0.43328
 N652 N 0.44164 0.96626 0.47108
 N653 N 0.41854 0.94595 0.46465
 N654 N 0.46462 1.03186 0.45229
 N655 N 0.45825 1.05240 0.43312
 Mn656 Mn 0.44119 0.99918 0.50026
 Mn657 Mn 0.49991 0.99919 0.45221
 Cl658 Cl 0.49998 0.99946 0.50015
 C659 C 0.42961 1.06538 0.44099
 C660 C 0.42950 0.93321 0.44115
 N661 N 1.05860 1.03226 0.52931
 N662 N 1.08112 1.05337 0.53530
 N663 N 1.03460 0.96721 0.54813
 N664 N 1.04028 0.94695 0.56760
 N665 N 1.05806 0.96654 0.52993
 N666 N 1.08046 0.94561 0.53671
 N667 N 1.03509 1.03262 0.54746
 N668 N 1.04083 1.05390 0.56611
 C669 C 1.06940 1.06695 0.55823
 C670 C 1.06870 0.93333 0.56020
 N671 N 0.94124 0.96727 0.52956
 N672 N 0.91881 0.94615 0.53574
 N673 N 0.96499 1.03301 0.54730
 N674 N 0.95956 1.05442 0.56590
 N675 N 0.94156 1.03294 0.52908
 N676 N 0.91939 1.05441 0.53498
 N677 N 0.96452 0.96754 0.54791
 N678 N 0.95874 0.94665 0.56688
 Mn679 Mn 0.99980 1.00011 0.54784
 C680 C 0.93036 0.93322 0.55900
 C681 C 0.93127 1.06787 0.55793
 N682 N 1.05831 0.96602 0.47101
 N683 N 1.08074 0.94489 0.46490
 N684 N 1.03535 1.03158 0.45224
 N685 N 1.04080 1.05288 0.43355
 N686 N 1.05874 1.03169 0.47051
 N687 N 1.08090 1.05318 0.46455
 N688 N 1.03501 0.96612 0.45267
 N689 N 1.04078 0.94509 0.43380
 Mn690 Mn 1.05889 0.99910 0.50018
 C691 C 1.06915 0.93174 0.44173
 C692 C 1.06908 1.06643 0.44150
 N693 N 0.94177 1.03223 0.47029
 N694 N 0.91948 1.05340 0.46401
 N695 N 0.96493 0.96644 0.45253
 N696 N 0.95947 0.94504 0.43393
 N697 N 0.94145 0.96657 0.47071
 N698 N 0.91918 0.94519 0.46475
 N699 N 0.96518 1.03191 0.45205
 N700 N 0.95958 1.05279 0.43302
 Mn701 Mn 0.94105 0.99974 0.49991
 Mn702 Mn 1.00012 0.99902 0.45221
 Cl703 Cl 0.99997 0.99948 0.50003
 C704 C 0.93121 1.06630 0.44081
 C705 C 0.93107 0.93169 0.44183
 N706 N 0.55821 0.53241 0.02916
 N707 N 0.58039 0.55390 0.03498
 N708 N 0.53470 0.46699 0.04762
 N709 N 0.53989 0.44557 0.06624
 N710 N 0.55810 0.46678 0.02938
 N711 N 0.58004 0.44513 0.03527
 N712 N 0.53485 0.53240 0.04742
 N713 N 0.54031 0.55382 0.06601
 C714 C 0.56858 0.56730 0.05794
 C715 C 0.56804 0.43187 0.05825
 N716 N 0.44135 0.46688 0.02933
 N717 N 0.41919 0.44542 0.03528
 N718 N 0.46487 0.53246 0.04739
 N719 N 0.45977 0.55411 0.06582
 N720 N 0.44146 0.53252 0.02916
 N721 N 0.41959 0.55431 0.03488
 N722 N 0.46471 0.46705 0.04760
 N723 N 0.45926 0.44578 0.06631
 Mn724 Mn 0.49978 0.49973 0.04769
 C725 C 0.43100 0.43221 0.05832
 C726 C 0.43165 0.56780 0.05774
 N727 N 0.55816 0.46659 -0.02935
 N728 N 0.58035 0.44517 -0.03524
 N729 N 0.53479 0.53205 -0.04779
 N730 N 0.53989 0.55367 -0.06625
 N731 N 0.55818 0.53223 -0.02954
 N732 N 0.58001 0.55406 -0.03526
 N733 N 0.53481 0.46664 -0.04762
 N734 N 0.54028 0.44530 -0.06627
 Mn735 Mn 0.55865 0.49950 -0.00009
 C736 C 0.56855 0.43184 -0.05825
 C737 C 0.56797 0.56745 -0.05816
 N738 N 0.44141 0.53221 -0.02960
 N739 N 0.41903 0.55333 -0.03581
 N740 N 0.46484 0.46662 -0.04762
 N741 N 0.45974 0.44491 -0.06601
 N742 N 0.44141 0.46658 -0.02940
 N743 N 0.41954 0.44475 -0.03508
 N744 N 0.46479 0.53203 -0.04787
 N745 N 0.45912 0.55295 -0.06682
 Mn746 Mn 0.44092 0.49955 -0.00013
 Mn747 Mn 0.49981 0.49934 -0.04790
 Cl748 Cl 0.49979 0.49953 -0.00011
 C749 C 0.43073 0.56634 -0.05899
 C750 C 0.43162 0.43122 -0.05790
 C751 C 0.35613 1.14527 0.13100
 C752 C 0.36821 1.15043 0.15728
 C753 C 0.34932 1.16730 0.17576
 C754 C 0.31864 1.17940 0.16819
 C755 C 0.30707 1.17472 0.14154
 C756 C 0.32566 1.15723 0.12289
 C757 C 0.37559 1.12651 0.11180
 C758 C 0.36319 1.12025 0.08576
 C759 C 0.38133 1.10120 0.06802
 C760 C 0.41164 1.08875 0.07632
 C761 C 0.42399 1.09611 0.10221
 C762 C 0.40598 1.11464 0.12010
 C763 C 0.31432 1.15105 0.09647
 C764 C 0.33269 1.13276 0.07827
 C765 C 0.39887 1.13844 0.16471
 C766 C 0.41751 1.12092 0.14639
 H767 H 0.29089 1.16010 0.08990
 H768 H 0.32284 1.12824 0.05824
 H769 H 0.40844 1.14245 0.18493
 H770 H 0.44095 1.11186 0.15297
 H771 H 0.35867 1.17123 0.19608
 H772 H 0.28348 1.18401 0.13559
 H773 H 0.37171 1.09567 0.04809
 H774 H 0.44726 1.08667 0.10882
 C775 C 0.84674 0.63883 0.62941
 C776 C 0.83812 0.62627 0.65473
 C777 C 0.82070 0.64467 0.67318
 C778 C 0.81180 0.67554 0.66662
 C779 C 0.81974 0.68754 0.64079
 C780 C 0.83755 0.66931 0.62216
 C781 C 0.86662 0.62001 0.61050
 C782 C 0.87634 0.63285 0.58554
 C783 C 0.89659 0.61529 0.56821
 C784 C 0.90714 0.58524 0.57591
 C785 C 0.89637 0.57252 0.60071
 C786 C 0.87632 0.58983 0.61814
 C787 C 0.84714 0.68112 0.59674
 C788 C 0.86623 0.66323 0.57877
 C789 C 0.84775 0.59576 0.66139
 C790 C 0.86649 0.57783 0.64338
 H791 H 0.84023 0.70456 0.59083
 H792 H 0.87346 0.67343 0.55956
 H793 H 0.84111 0.58580 0.68085
 H794 H 0.87378 0.55454 0.64945
 H795 H 0.81446 0.63507 0.69288
 H796 H 0.81315 0.71130 0.63560
 H797 H 0.90476 0.62527 0.54916
 H798 H 0.90427 0.54942 0.60681
 C799 C 0.64379 0.85484 0.13068
 C800 C 0.67418 0.84276 0.12246
 C801 C 0.69272 0.82507 0.14099
 C802 C 0.68120 0.82030 0.16765
 C803 C 0.65059 0.83248 0.17532
 C804 C 0.63175 0.84957 0.15695
 C805 C 0.62440 0.87384 0.11162
 C806 C 0.59412 0.88585 0.12004
 C807 C 0.57618 0.90461 0.10228
 C808 C 0.58848 0.91203 0.07638
 C809 C 0.61868 0.89944 0.06797
 C810 C 0.63676 0.88018 0.08558
 C811 C 0.60119 0.86170 0.16451
 C812 C 0.58262 0.87947 0.14632
 C813 C 0.68547 0.84904 0.09605
 C814 C 0.66716 0.86754 0.07798
 H815 H 0.59164 0.85761 0.18472
 H816 H 0.55926 0.88862 0.15299
 H817 H 0.70883 0.83991 0.08939
 H818 H 0.67698 0.87213 0.05794
 H819 H 0.71626 0.81573 0.13497
 H820 H 0.64126 0.82850 0.19563
 H821 H 0.55299 0.91415 0.10898
 H822 H 0.62827 0.90500 0.04803
 C823 C 1.15412 0.36195 0.62901
 C824 C 1.16307 0.33143 0.62169
 C825 C 1.18072 0.31301 0.64027
 C826 C 1.18873 0.32487 0.66614
 C827 C 1.18008 0.35578 0.67278
 C828 C 1.16282 0.37437 0.65436
 C829 C 1.13441 0.38098 0.61014
 C830 C 1.12495 0.41120 0.61784
 C831 C 1.10504 0.42871 0.60044
 C832 C 1.09415 0.41612 0.57563
 C833 C 1.10446 0.38601 0.56787
 C834 C 1.12458 0.36827 0.58515
 C835 C 1.15344 0.40494 0.66109
 C836 C 1.13486 0.42306 0.64311
 C837 C 1.15340 0.31976 0.59623
 C838 C 1.13445 0.33783 0.57831
 H839 H 1.16014 0.41478 0.68057
 H840 H 1.12777 0.44639 0.64924
 H841 H 1.16011 0.29628 0.59027
 H842 H 1.12714 0.32774 0.55908
 H843 H 1.18712 0.28921 0.63502
 H844 H 1.18637 0.36527 0.69251
 H845 H 1.09731 0.45185 0.60660
 H846 H 1.09621 0.37613 0.54881
 C847 C 0.64373 1.14478 -0.13150
 C848 C 0.67400 1.15712 -0.12323
 C849 C 0.69256 1.17477 -0.14179
 C850 C 0.68119 1.17925 -0.16852
 C851 C 0.65070 1.16679 -0.17625
 C852 C 0.63183 1.14974 -0.15786
 C853 C 0.62429 1.12587 -0.11239
 C854 C 0.59411 1.11362 -0.12085
 C855 C 0.57612 1.09497 -0.10301
 C856 C 0.58829 1.08789 -0.07701
 C857 C 0.61840 1.10069 -0.06857
 C858 C 0.63651 1.11986 -0.08625
 C859 C 0.60137 1.13736 -0.16547
 C860 C 0.58276 1.11968 -0.14722
 C861 C 0.68515 1.15115 -0.09672
 C862 C 0.66681 1.13273 -0.07860
 H863 H 0.59194 1.14121 -0.18575
 H864 H 0.55948 1.11034 -0.15393
 H865 H 0.70843 1.16049 -0.09003
 H866 H 0.67652 1.12840 -0.05849
 H867 H 0.71600 1.18433 -0.13571
 H868 H 0.64148 1.17056 -0.19663
 H869 H 0.55301 1.08524 -0.10973
 H870 H 0.62788 1.09538 -0.04855
 C871 C 1.15363 0.63859 0.37052
 C872 C 1.16229 0.62598 0.34524
 C873 C 1.17967 0.64440 0.32675
 C874 C 1.18846 0.67531 0.33327
 C875 C 1.18049 0.68736 0.35908
 C876 C 1.16272 0.66912 0.37772
 C877 C 1.13377 0.61976 0.38944
 C878 C 1.12396 0.63267 0.41436
 C879 C 1.10369 0.61513 0.43168
 C880 C 1.09321 0.58503 0.42402
 C881 C 1.10408 0.57223 0.39930
 C882 C 1.12415 0.58953 0.38186
 C883 C 1.15308 0.68099 0.40310
 C884 C 1.13400 0.66311 0.42108
 C885 C 1.15276 0.59541 0.33863
 C886 C 1.13404 0.57747 0.35667
 H887 H 1.15993 0.70448 0.40896
 H888 H 1.12670 0.67334 0.44026
 H889 H 1.15944 0.58542 0.31920
 H890 H 1.12682 0.55414 0.35064
 H891 H 1.18594 0.63478 0.30706
 H892 H 1.18701 0.71116 0.36423
 H893 H 1.09544 0.62515 0.45068
 H894 H 1.09623 0.54908 0.39324
 C895 C 0.35568 0.85216 -0.12835
 C896 C 0.32447 0.84166 -0.12057
 C897 C 0.30567 0.82412 -0.13910
 C898 C 0.31782 0.81806 -0.16534
 C899 C 0.34934 0.82846 -0.17250
 C900 C 0.36838 0.84535 -0.15414
 C901 C 0.37519 0.87133 -0.10946
 C902 C 0.40619 0.88196 -0.11755
 C903 C 0.42415 0.90113 -0.10008
 C904 C 0.41119 0.91029 -0.07485
 C905 C 0.38032 0.89895 -0.06669
 C906 C 0.36217 0.87935 -0.08401
 C907 C 0.39970 0.85599 -0.16130
 C908 C 0.41835 0.87392 -0.14326
 C909 C 0.31255 0.84952 -0.09467
 C910 C 0.33101 0.86813 -0.07676
 H911 H 0.40975 0.85069 -0.18113
 H912 H 0.44228 0.88198 -0.14966
 H913 H 0.28856 0.84161 -0.08833
 H914 H 0.32068 0.87402 -0.05716
 H915 H 0.28142 0.81614 -0.13351
 H916 H 0.35907 0.82341 -0.19250
 H917 H 0.44788 0.90965 -0.10656
 H918 H 0.37020 0.90586 -0.04727
 C919 C 0.84693 0.36078 0.37138
 C920 C 0.83832 0.33007 0.37842
 C921 C 0.82056 0.31177 0.35978
 C922 C 0.81211 0.32394 0.33412
 C923 C 0.82045 0.35503 0.32777
 C924 C 0.83780 0.37350 0.34625
 C925 C 0.86674 0.37972 0.39029
 C926 C 0.87583 0.41014 0.38285
 C927 C 0.89579 0.42760 0.40027
 C928 C 0.90709 0.41480 0.42486
 C929 C 0.89716 0.38447 0.43238
 C930 C 0.87699 0.36676 0.41506
 C931 C 0.84684 0.40424 0.33978
 C932 C 0.86549 0.42228 0.35780
 C933 C 0.84843 0.31813 0.40366
 C934 C 0.86746 0.33613 0.42163
 H935 H 0.83980 0.41431 0.32047
 H936 H 0.87231 0.44575 0.35188
 H937 H 0.84198 0.29451 0.40942
 H938 H 0.87509 0.32583 0.44068
 H939 H 0.81441 0.28784 0.36480
 H940 H 0.81382 0.36475 0.30821
 H941 H 0.90319 0.45091 0.39430
 H942 H 0.90574 0.37443 0.45127
 C943 C 1.15404 0.36226 0.12981
 C944 C 1.16480 0.33241 0.12212
 C945 C 1.18267 0.31430 0.14079
 C946 C 1.18901 0.32571 0.16714
 C947 C 1.17851 0.35596 0.17419
 C948 C 1.16112 0.37432 0.15565
 C949 C 1.13413 0.38092 0.11078
 C950 C 1.12302 0.41050 0.11878
 C951 C 1.10308 0.42766 0.10116
 C952 C 1.09365 0.41532 0.07583
 C953 C 1.10550 0.38582 0.06782
 C954 C 1.12582 0.36848 0.08530
 C955 C 1.15003 0.40425 0.16269
 C956 C 1.13138 0.42208 0.14454
 C957 C 1.15667 0.32104 0.09618
 C958 C 1.13746 0.33871 0.07814
 H959 H 1.15548 0.41384 0.18254
 H960 H 1.12299 0.44492 0.15090
 H961 H 1.16480 0.29808 0.08993
 H962 H 1.13137 0.32883 0.05853
 H963 H 1.19052 0.29101 0.13521
 H964 H 1.18353 0.36511 0.19429
 H965 H 1.09416 0.45032 0.10755
 H966 H 1.09842 0.37614 0.04836
 C967 C 0.64599 0.85715 0.63185
 C968 C 0.67701 0.84623 0.62404
 C969 C 0.69566 0.82875 0.64266
 C970 C 0.68353 0.82297 0.66897
 C971 C 0.65236 0.83415 0.67627
 C972 C 0.63346 0.85104 0.65783
 C973 C 0.62633 0.87569 0.61264
 C974 C 0.59539 0.88648 0.62065
 C975 C 0.57710 0.90471 0.60273
 C976 C 0.58965 0.91274 0.57707
 C977 C 0.62055 0.90138 0.56906
 C978 C 0.63904 0.88272 0.58686
 C979 C 0.60230 0.86203 0.66499
 C980 C 0.58352 0.87939 0.64667
 C981 C 0.68874 0.85332 0.59792
 C982 C 0.67013 0.87133 0.57969
 H983 H 0.59241 0.85729 0.68499
 H984 H 0.55966 0.88763 0.65303
 H985 H 0.71262 0.84511 0.59159
 H986 H 0.68025 0.87651 0.55986
 H987 H 0.71964 0.82021 0.63692
 H988 H 0.64258 0.82941 0.69631
 H989 H 0.55338 0.91332 0.60910
 H990 H 0.63036 0.90746 0.54932
 C991 C 1.15160 0.63719 -0.13369
 C992 C 1.17000 0.66255 -0.12407
 C993 C 1.18851 0.68046 -0.14255
 C994 C 1.18770 0.67384 -0.17078
 C995 C 1.16913 0.64779 -0.17967
 C996 C 1.15143 0.62944 -0.16133
 C997 C 1.13157 0.61869 -0.11458
 C998 C 1.11344 0.59325 -0.12438
 C999 C 1.09402 0.57606 -0.10640
 C1000 C 1.09180 0.58450 -0.07883
 C1001 C 1.11018 0.61008 -0.06918
 C1002 C 1.13041 0.62713 -0.08703
 C1003 C 1.13311 0.60367 -0.17030
 C1004 C 1.11459 0.58577 -0.15211
 C1005 C 1.16888 0.66985 -0.09622
 C1006 C 1.14929 0.65260 -0.07808
 H1007 H 1.13293 0.59737 -0.19161
 H1008 H 1.10069 0.56617 -0.15990
 H1009 H 1.18289 0.68936 -0.08842
 H1010 H 1.14883 0.65934 -0.05688
 H1011 H 1.20246 0.70014 -0.13495
 H1012 H 1.16819 0.64155 -0.20100
 H1013 H 1.07988 0.55656 -0.11410
 H1014 H 1.10870 0.61665 -0.04797
 C1015 C 0.64620 1.14180 0.36801
 C1016 C 0.67707 1.15302 0.37598
 C1017 C 0.69577 1.17057 0.35742
 C1018 C 0.68386 1.17614 0.33100
 C1019 C 0.65286 1.16461 0.32354
 C1020 C 0.63390 1.14765 0.34192
 C1021 C 0.62646 1.12325 0.38720
 C1022 C 0.59565 1.11218 0.37905
 C1023 C 0.57726 1.09399 0.39699
 C1024 C 0.58959 1.08628 0.42280
 C1025 C 0.62037 1.09789 0.43091
 C1026 C 0.63894 1.11652 0.41310
 C1027 C 0.60288 1.13636 0.33461
 C1028 C 0.58401 1.11899 0.35291
 C1029 C 0.68858 1.14620 0.40222
 C1030 C 0.66990 1.12818 0.42042
 H1031 H 0.59315 1.14089 0.31453
 H1032 H 0.56026 1.11055 0.34644
 H1033 H 0.71233 1.15464 0.40867
 H1034 H 0.67984 1.12323 0.44035
 H1035 H 0.71962 1.17935 0.36329
 H1036 H 0.64322 1.16917 0.30342
 H1037 H 0.55364 1.08518 0.39053
 H1038 H 0.63001 1.09207 0.45076
 C1039 C 0.84677 0.63773 0.12933
 C1040 C 0.83949 0.62561 0.15510
 C1041 C 0.82183 0.64387 0.17354
 C1042 C 0.81127 0.67409 0.16648
 C1043 C 0.81780 0.68556 0.14017
 C1044 C 0.83594 0.66754 0.12159
 C1045 C 0.86698 0.61918 0.11042
 C1046 C 0.87547 0.63167 0.08500
 C1047 C 0.89604 0.61444 0.06764
 C1048 C 0.90799 0.58499 0.07571
 C1049 C 0.89840 0.57260 0.10098
 C1050 C 0.87818 0.58965 0.11847
 C1051 C 0.84426 0.67896 0.09572
 C1052 C 0.86374 0.66139 0.07779
 C1053 C 0.85068 0.59572 0.16220
 C1054 C 0.86962 0.57801 0.14417
 H1055 H 0.83608 0.70189 0.08944
 H1056 H 0.86997 0.67131 0.05823
 H1057 H 0.84508 0.58609 0.18200
 H1058 H 0.87808 0.55521 0.15057
 H1059 H 0.81667 0.63467 0.19360
 H1060 H 0.80992 0.70883 0.13458
 H1061 H 0.90325 0.62415 0.04823
 H1062 H 0.90737 0.54998 0.10741
 C1063 C 0.35412 1.14302 0.63099
 C1064 C 0.36687 1.14963 0.65681
 C1065 C 0.34793 1.16646 0.67526
 C1066 C 0.31651 1.17710 0.66812
 C1067 C 0.30416 1.17088 0.64195
 C1068 C 0.32284 1.15343 0.62334
 C1069 C 0.37379 1.12447 0.61181
 C1070 C 0.36085 1.11689 0.58623
 C1071 C 0.37933 1.09813 0.56849
 C1072 C 0.41046 1.08723 0.57636
 C1073 C 0.42326 1.09585 0.60179
 C1074 C 0.40498 1.11417 0.61966
 C1075 C 0.31089 1.14584 0.59739
 C1076 C 0.32952 1.12779 0.57920
 C1077 C 0.39828 1.13916 0.66380
 C1078 C 0.41708 1.12178 0.64549
 H1079 H 0.28682 1.15364 0.59119
 H1080 H 0.31922 1.12218 0.55952
 H1081 H 0.40835 1.14428 0.68366
 H1082 H 0.44113 1.11394 0.65172
 H1083 H 0.35785 1.17157 0.69519
 H1084 H 0.27999 1.17902 0.63636
 H1085 H 0.36933 1.09159 0.54892
 H1086 H 0.44716 1.08761 0.60805
 C1087 C 0.84561 0.36256 -0.12954
 C1088 C 0.83504 0.33262 -0.12190
 C1089 C 0.81718 0.31446 -0.14057
 C1090 C 0.81070 0.32592 -0.16687
 C1091 C 0.82097 0.35627 -0.17385
 C1092 C 0.83835 0.37467 -0.15531
 C1093 C 0.86557 0.38125 -0.11054
 C1094 C 0.87655 0.41091 -0.11852
 C1095 C 0.89662 0.42806 -0.10097
 C1096 C 0.90629 0.41564 -0.07574
 C1097 C 0.89452 0.38610 -0.06773
 C1098 C 0.87409 0.36876 -0.08514
 C1099 C 0.84927 0.40469 -0.16232
 C1100 C 0.86798 0.42254 -0.14420
 C1101 C 0.84335 0.32120 -0.09603
 C1102 C 0.86261 0.33891 -0.07801
 H1103 H 0.84367 0.41431 -0.18212
 H1104 H 0.87627 0.44543 -0.15054
 H1105 H 0.83536 0.29818 -0.08981
 H1106 H 0.86886 0.32899 -0.05846
 H1107 H 0.80949 0.29109 -0.13505
 H1108 H 0.81583 0.36545 -0.19391
 H1109 H 0.90546 0.45076 -0.10734
 H1110 H 0.90180 0.37637 -0.04835
 C1111 C 0.35432 0.85627 0.36882
 C1112 C 0.32301 0.84582 0.37637
 C1113 C 0.30430 0.82859 0.35761
 C1114 C 0.31666 0.82262 0.33141
 C1115 C 0.34810 0.83332 0.32436
 C1116 C 0.36707 0.84993 0.34295
 C1117 C 0.37403 0.87456 0.38817
 C1118 C 0.40526 0.88490 0.38041
 C1119 C 0.42357 0.90300 0.39844
 C1120 C 0.41075 0.91140 0.42391
 C1121 C 0.37961 0.90043 0.43169
 C1122 C 0.36109 0.88188 0.41381
 C1123 C 0.39852 0.86043 0.33606
 C1124 C 0.41736 0.87756 0.35453
 C1125 C 0.31106 0.85313 0.40237
 C1126 C 0.32972 0.87095 0.42073
 H1127 H 0.40859 0.85551 0.31616
 H1128 H 0.44145 0.88544 0.34838
 H1129 H 0.28695 0.84529 0.40849
 H1130 H 0.31943 0.87636 0.44044
 H1131 H 0.28010 0.82040 0.36314
 H1132 H 0.35803 0.82840 0.30440
 H1133 H 0.44750 0.91129 0.39225
 H1134 H 0.36960 0.90680 0.45130
 C1135 C 1.13726 1.15148 0.37118
 C1136 C 1.16920 1.16106 0.37756
 C1137 C 1.18671 1.17919 0.35874
 C1138 C 1.17263 1.18701 0.33351
 C1139 C 1.14038 1.17762 0.32772
 C1140 C 1.12256 1.15994 0.34648
 C1141 C 1.11920 1.13134 0.39030
 C1142 C 1.08754 1.12135 0.38355
 C1143 C 1.07101 1.10112 0.40108
 C1144 C 1.08602 1.09035 0.42505
 C1145 C 1.11751 1.10114 0.43194
 C1146 C 1.13428 1.12168 0.41452
 C1147 C 1.09058 1.14996 0.34074
 C1148 C 1.07332 1.13105 0.35901
 C1149 C 1.18324 1.15157 0.40228
 C1150 C 1.16611 1.13216 0.42041
 H1151 H 1.07896 1.15648 0.32180
 H1152 H 1.04884 1.12350 0.35365
 H1153 H 1.20787 1.15878 0.40747
 H1154 H 1.17804 1.12499 0.43904
 H1155 H 1.21163 1.18615 0.36327
 H1156 H 1.12930 1.18374 0.30844
 H1157 H 1.04674 1.09306 0.39562
 H1158 H 1.12921 1.09297 0.45036
 C1159 C 0.63617 0.65205 -0.12850
 C1160 C 0.66824 0.66131 -0.12221
 C1161 C 0.68595 0.67897 -0.14119
 C1162 C 0.67195 0.68662 -0.16648
 C1163 C 0.63956 0.67760 -0.17218
 C1164 C 0.62154 0.66039 -0.15325
 C1165 C 0.61794 0.63230 -0.10923
 C1166 C 0.58619 0.62251 -0.11591
 C1167 C 0.56959 0.60243 -0.09831
 C1168 C 0.58468 0.59158 -0.07442
 C1169 C 0.61618 0.60228 -0.06753
 C1170 C 0.63301 0.62266 -0.08499
 C1171 C 0.58943 0.65072 -0.15889
 C1172 C 0.57200 0.63215 -0.14048
 C1173 C 0.68221 0.65198 -0.09743
 C1174 C 0.66492 0.63291 -0.07917
 H1175 H 0.57786 0.65717 -0.17787
 H1176 H 0.54745 0.62477 -0.14576
 H1177 H 0.70692 0.65900 -0.09233
 H1178 H 0.67681 0.62577 -0.06052
 H1179 H 0.71095 0.68569 -0.13674
 H1180 H 0.62854 0.68365 -0.19150
 H1181 H 0.54528 0.59445 -0.10373
 H1182 H 0.62790 0.59403 -0.04915
 C1183 C 0.86285 1.15236 0.62856
 C1184 C 0.87757 1.16084 0.65326
 C1185 C 0.85971 1.17836 0.67210
 C1186 C 0.82741 1.18761 0.66639
 C1187 C 0.81330 1.17976 0.64115
 C1188 C 0.83084 1.16177 0.62226
 C1189 C 0.88096 1.13241 0.60935
 C1190 C 0.86586 1.12272 0.58513
 C1191 C 0.88269 1.10233 0.56762
 C1192 C 0.91426 1.09172 0.57442
 C1193 C 0.92929 1.10254 0.59838
 C1194 C 0.91270 1.12261 0.61600
 C1195 C 0.81679 1.15226 0.59754
 C1196 C 0.83396 1.13301 0.57933
 C1197 C 0.90962 1.15105 0.65891
 C1198 C 0.92694 1.13232 0.64055
 H1199 H 0.79211 1.15934 0.59243
 H1200 H 0.82202 1.12582 0.56072
 H1201 H 0.92126 1.15758 0.67784
 H1202 H 0.95147 1.12492 0.64583
 H1203 H 0.87081 1.18450 0.69137
 H1204 H 0.78835 1.18660 0.63669
 H1205 H 0.87098 1.09411 0.54922
 H1206 H 0.95362 1.09464 0.60377
 C1207 C 0.36369 0.65232 0.12828
 C1208 C 0.37847 0.66077 0.15296
 C1209 C 0.36054 0.67798 0.17195
 C1210 C 0.32811 0.68691 0.16637
 C1211 C 0.31395 0.67914 0.14116
 C1212 C 0.33156 0.66147 0.12213
 C1213 C 0.38182 0.63258 0.10896
 C1214 C 0.36661 0.62284 0.08480
 C1215 C 0.38338 0.60246 0.06728
 C1216 C 0.41496 0.59191 0.07403
 C1217 C 0.43018 0.60289 0.09784
 C1218 C 0.41365 0.62293 0.11549
 C1219 C 0.31744 0.65202 0.09743
 C1220 C 0.33464 0.63296 0.07911
 C1221 C 0.41063 0.65122 0.15846
 C1222 C 0.42798 0.63268 0.13998
 H1223 H 0.29268 0.65895 0.09243
 H1224 H 0.32264 0.62573 0.06054
 H1225 H 0.42232 0.65776 0.17737
 H1226 H 0.45258 0.62540 0.14516
 H1227 H 0.37168 0.68412 0.19120
 H1228 H 0.28891 0.68578 0.13681
 H1229 H 0.37155 0.59413 0.04897
 H1230 H 0.45455 0.59502 0.10316
 C1231 C 1.13722 0.85139 0.63315
 C1232 C 1.16491 0.83494 0.62434
 C1233 C 1.18230 0.81647 0.64302
 C1234 C 1.17284 0.81530 0.67074
 C1235 C 1.14455 0.83195 0.67882
 C1236 C 1.12667 0.84967 0.66020
 C1237 C 1.11925 0.87135 0.61385
 C1238 C 1.09151 0.88760 0.62283
 C1239 C 1.07486 0.90699 0.60475
 C1240 C 1.08606 0.91096 0.57793
 C1241 C 1.11385 0.89442 0.56905
 C1242 C 1.13046 0.87431 0.58699
 C1243 C 1.09863 0.86612 0.66832
 C1244 C 1.08123 0.88464 0.64990
 C1245 C 1.17501 0.83788 0.59715
 C1246 C 1.15821 0.85735 0.57885
 H1247 H 1.09018 0.86483 0.68914
 H1248 H 1.05982 0.89709 0.65701
 H1249 H 1.19638 0.82536 0.59003
 H1250 H 1.16711 0.85924 0.55820
 H1251 H 1.20382 0.80404 0.63606
 H1252 H 1.13619 0.83134 0.69972
 H1253 H 1.05358 0.91966 0.61186
 H1254 H 1.12253 0.89729 0.54841
 C1255 C 0.63659 0.34811 0.12909
 C1256 C 0.62206 0.33997 0.15395
 C1257 C 0.64011 0.32282 0.17289
 C1258 C 0.67241 0.31363 0.16710
 C1259 C 0.68631 0.32114 0.14173
 C1260 C 0.66858 0.33872 0.12273
 C1261 C 0.61831 0.36771 0.10976
 C1262 C 0.63325 0.37709 0.08539
 C1263 C 0.61635 0.39728 0.06782
 C1264 C 0.58488 0.40801 0.07471
 C1265 C 0.56993 0.39743 0.09877
 C1266 C 0.58660 0.37756 0.11648
 C1267 C 0.68244 0.34784 0.09784
 C1268 C 0.66511 0.36677 0.07951
 C1269 C 0.59002 0.34974 0.15965
 C1270 C 0.57253 0.36816 0.14117
 H1271 H 0.70710 0.34073 0.09267
 H1272 H 0.67691 0.37372 0.06077
 H1273 H 0.57853 0.34345 0.17870
 H1274 H 0.54803 0.37560 0.14649
 H1275 H 0.62915 0.31689 0.19226
 H1276 H 0.71125 0.31430 0.13719
 H1277 H 0.62797 0.40531 0.04931
 H1278 H 0.54565 0.40545 0.10421
 C1279 C 0.86253 0.84746 0.37100
 C1280 C 0.83044 0.83816 0.37720
 C1281 C 0.81289 0.82024 0.35826
 C1282 C 0.82707 0.81237 0.33307
 C1283 C 0.85944 0.82151 0.32744
 C1284 C 0.87731 0.83895 0.34635
 C1285 C 0.88066 0.86733 0.39028
 C1286 C 0.91249 0.87703 0.38372
 C1287 C 0.92910 0.89702 0.40140
 C1288 C 0.91402 0.90790 0.42531
 C1289 C 0.88236 0.89740 0.43201
 C1290 C 0.86550 0.87707 0.41446
 C1291 C 0.90944 0.84863 0.34080
 C1292 C 0.92678 0.86728 0.35922
 C1293 C 0.81633 0.84770 0.40188
 C1294 C 0.83353 0.86688 0.42015
 H1295 H 0.92113 0.84207 0.32190
 H1296 H 0.95138 0.87460 0.35402
 H1297 H 0.79159 0.84070 0.40692
 H1298 H 0.82154 0.87410 0.43873
 H1299 H 0.78789 0.81347 0.36265
 H1300 H 0.87060 0.81534 0.30820
 H1301 H 0.95350 0.90485 0.39608
 H1302 H 0.87061 0.90565 0.45038
 C1303 C 0.36350 0.34680 -0.12847
 C1304 C 0.33128 0.33781 -0.12241
 C1305 C 0.31362 0.32026 -0.14150
 C1306 C 0.32782 0.31245 -0.16668
 C1307 C 0.36034 0.32119 -0.17216
 C1308 C 0.37832 0.33829 -0.15311
 C1309 C 0.38169 0.36646 -0.10911
 C1310 C 0.41360 0.37597 -0.11557
 C1311 C 0.43017 0.39599 -0.09790
 C1312 C 0.41491 0.40707 -0.07416
 C1313 C 0.38325 0.39663 -0.06747
 C1314 C 0.36644 0.37629 -0.08500
 C1315 C 0.41057 0.34768 -0.15853
 C1316 C 0.42797 0.36615 -0.14001
 C1317 C 0.31713 0.34733 -0.09775
 C1318 C 0.33438 0.36632 -0.07939
 H1319 H 0.42229 0.34109 -0.17741
 H1320 H 0.45264 0.37332 -0.14512
 H1321 H 0.29230 0.34051 -0.09282
 H1322 H 0.32235 0.37361 -0.06085
 H1323 H 0.28851 0.31375 -0.13722
 H1324 H 0.37150 0.31501 -0.19139
 H1325 H 0.45460 0.40377 -0.10317
 H1326 H 0.37139 0.40505 -0.04921
 C1327 C 1.15053 0.36066 -0.13100
 C1328 C 1.16139 0.33090 -0.12315
 C1329 C 1.17880 0.31253 -0.14189
 C1330 C 1.18454 0.32365 -0.16839
 C1331 C 1.17376 0.35370 -0.17568
 C1332 C 1.15688 0.37231 -0.15710
 C1333 C 1.13145 0.37974 -0.11179
 C1334 C 1.12038 0.40931 -0.11990
 C1335 C 1.10119 0.42686 -0.10209
 C1336 C 1.09243 0.41491 -0.07649
 C1337 C 1.10428 0.38549 -0.06834
 C1338 C 1.12389 0.36776 -0.08600
 C1339 C 1.14584 0.40220 -0.16429
 C1340 C 1.12796 0.42044 -0.14596
 C1341 C 1.15403 0.31997 -0.09693
 C1342 C 1.13550 0.33803 -0.07871
 H1343 H 1.15078 0.41145 -0.18435
 H1344 H 1.11956 0.44325 -0.15238
 H1345 H 1.16226 0.29708 -0.09057
 H1346 H 1.12997 0.32852 -0.05886
 H1347 H 1.18702 0.28941 -0.13615
 H1348 H 1.17849 0.36265 -0.19590
 H1349 H 1.09225 0.44948 -0.10855
 H1350 H 1.09766 0.37616 -0.04863
 C1351 C 0.64270 0.85184 0.37013
 C1352 C 0.62908 0.84406 0.34486
 C1353 C 0.64763 0.82682 0.32633
 C1354 C 0.67958 0.81709 0.33284
 C1355 C 0.69268 0.82433 0.35857
 C1356 C 0.67438 0.84208 0.37723
 C1357 C 0.62366 0.87121 0.38920
 C1358 C 0.63754 0.88005 0.41414
 C1359 C 0.61971 0.89965 0.43168
 C1360 C 0.58832 0.91027 0.42423
 C1361 C 0.57460 0.90043 0.39944
 C1362 C 0.59219 0.88117 0.38179
 C1363 C 0.68724 0.85087 0.40259
 C1364 C 0.66918 0.86958 0.42069
 C1365 C 0.59734 0.85409 0.33838
 C1366 C 0.57916 0.87227 0.35657
 H1367 H 0.71164 0.84356 0.40837
 H1368 H 0.68021 0.87613 0.43986
 H1369 H 0.58657 0.84810 0.31896
 H1370 H 0.55488 0.87981 0.35069
 H1371 H 0.63722 0.82108 0.30670
 H1372 H 0.71732 0.81705 0.36366
 H1373 H 0.63045 0.90710 0.45072
 H1374 H 0.55048 0.90840 0.39351
 C1375 C 0.84955 0.63895 -0.13051
 C1376 C 0.83888 0.66880 -0.12271
 C1377 C 0.82140 0.68713 -0.14142
 C1378 C 0.81542 0.67590 -0.16786
 C1379 C 0.82602 0.64578 -0.17510
 C1380 C 0.84294 0.62718 -0.15653
 C1381 C 0.86871 0.61991 -0.11133
 C1382 C 0.87957 0.59025 -0.11938
 C1383 C 0.89884 0.57272 -0.10160
 C1384 C 0.90789 0.58480 -0.07611
 C1385 C 0.89625 0.61432 -0.06802
 C1386 C 0.87654 0.63202 -0.08563
 C1387 C 0.85380 0.59721 -0.16366
 C1388 C 0.87173 0.57899 -0.14535
 C1389 C 0.84651 0.67985 -0.09658
 C1390 C 0.86512 0.66182 -0.07840
 H1391 H 0.84866 0.58787 -0.18366
 H1392 H 0.87998 0.55611 -0.15172
 H1393 H 0.83843 0.70280 -0.09027
 H1394 H 0.87087 0.67143 -0.05862
 H1395 H 0.81332 0.71031 -0.13573
 H1396 H 0.82111 0.63676 -0.19526
 H1397 H 0.90763 0.55003 -0.10802
 H1398 H 0.90308 0.62374 -0.04840
 C1399 C 0.35710 1.14709 0.37042
 C1400 C 0.32550 1.15697 0.37766
 C1401 C 0.30720 1.17488 0.35911
 C1402 C 0.32023 1.18218 0.33336
 C1403 C 0.35212 1.17235 0.32674
 C1404 C 0.37066 1.15494 0.34515
 C1405 C 0.37613 1.12752 0.38935
 C1406 C 0.40750 1.11744 0.38181
 C1407 C 0.42508 1.09801 0.39934
 C1408 C 0.41144 1.08815 0.42415
 C1409 C 0.38014 1.09890 0.43172
 C1410 C 0.36232 1.11865 0.41430
 C1411 C 0.40231 1.14477 0.33852
 C1412 C 0.42047 1.12639 0.35658
 C1413 C 0.31271 1.14812 0.40303
 C1414 C 0.33076 1.12924 0.42099
 H1415 H 0.41303 1.15081 0.31910
 H1416 H 0.44468 1.11877 0.35059
 H1417 H 0.28838 1.15551 0.40891
 H1418 H 0.31978 1.12266 0.44018
 H1419 H 0.28261 1.18223 0.36430
 H1420 H 0.36248 1.17812 0.30710
 H1421 H 0.44914 1.08994 0.39330
 H1422 H 0.36945 1.09144 0.45079
 C1423 C 1.15169 0.63881 0.13006
 C1424 C 1.16236 0.66870 0.12234
 C1425 C 1.17949 0.68714 0.14120
 C1426 C 1.18515 0.67598 0.16770
 C1427 C 1.17455 0.64582 0.17487
 C1428 C 1.15796 0.62712 0.15616
 C1429 C 1.13289 0.61965 0.11072
 C1430 C 1.12201 0.58996 0.11869
 C1431 C 1.10300 0.57234 0.10078
 C1432 C 1.09419 0.58439 0.07522
 C1433 C 1.10592 0.61391 0.06718
 C1434 C 1.12537 0.63169 0.08494
 C1435 C 1.14713 0.59710 0.16321
 C1436 C 1.12952 0.57877 0.14474
 C1437 C 1.15508 0.67968 0.09613
 C1438 C 1.13679 0.66153 0.07778
 H1439 H 1.15201 0.58782 0.18326
 H1440 H 1.12126 0.55586 0.15106
 H1441 H 1.16317 0.70266 0.08987
 H1442 H 1.13128 0.67109 0.05794
 H1443 H 1.18759 0.71035 0.13556
 H1444 H 1.17922 0.63685 0.19509
 H1445 H 1.09415 0.54964 0.10715
 H1446 H 1.09927 0.62329 0.04751
 C1447 C 0.64269 1.14831 0.62914
 C1448 C 0.67448 1.15782 0.62207
 C1449 C 0.69286 1.17558 0.64068
 C1450 C 0.67972 1.18305 0.66634
 C1451 C 0.64765 1.17361 0.67280
 C1452 C 0.62902 1.15636 0.65432
 C1453 C 0.62359 1.12885 0.61015
 C1454 C 0.59203 1.11909 0.61755
 C1455 C 0.57441 1.09968 0.60002
 C1456 C 0.58819 1.08951 0.57537
 C1457 C 0.61965 1.09998 0.56791
 C1458 C 0.63752 1.11971 0.58533
 C1459 C 0.59718 1.14655 0.66078
 C1460 C 0.57895 1.12829 0.64267
 C1461 C 0.68738 1.14874 0.59680
 C1462 C 0.66926 1.12997 0.57878
 H1463 H 0.58638 1.15277 0.68013
 H1464 H 0.55460 1.12092 0.64854
 H1465 H 0.71185 1.15586 0.59104
 H1466 H 0.68032 1.12318 0.55969
 H1467 H 0.71760 1.18264 0.63563
 H1468 H 0.63721 1.17954 0.69238
 H1469 H 0.55022 1.09184 0.60596
 H1470 H 0.63044 1.09227 0.54896
 C1471 C 0.85027 0.36156 0.13126
 C1472 C 0.83870 0.33210 0.12318
 C1473 C 0.82123 0.31373 0.14188
 C1474 C 0.81608 0.32450 0.16859
 C1475 C 0.82761 0.35425 0.17612
 C1476 C 0.84457 0.37289 0.15757
 C1477 C 0.86937 0.38066 0.11205
 C1478 C 0.88111 0.40993 0.12036
 C1479 C 0.90025 0.42752 0.10248
 C1480 C 0.90829 0.41584 0.07662
 C1481 C 0.89580 0.38670 0.06831
 C1482 C 0.87623 0.36897 0.08602
 C1483 C 0.85632 0.40249 0.16498
 C1484 C 0.87421 0.42075 0.14665
 C1485 C 0.84540 0.32148 0.09675
 C1486 C 0.86394 0.33954 0.07852
 H1487 H 0.85190 0.41149 0.18521
 H1488 H 0.88314 0.44334 0.15324
 H1489 H 0.83663 0.29883 0.09021
 H1490 H 0.86894 0.33027 0.05849
 H1491 H 0.81245 0.29085 0.13594
 H1492 H 0.82339 0.36295 0.19650
 H1493 H 0.90972 0.44991 0.10908
 H1494 H 0.90184 0.37759 0.04840
 C1495 C 0.35422 0.85829 0.63445
 C1496 C 0.32824 0.83991 0.62485
 C1497 C 0.31012 0.82165 0.64335
 C1498 C 0.31730 0.82243 0.67154
 C1499 C 0.34355 0.84155 0.68044
 C1500 C 0.36213 0.85902 0.66212
 C1501 C 0.37350 0.87733 0.61522
 C1502 C 0.39982 0.89514 0.62499
 C1503 C 0.41808 0.91319 0.60683
 C1504 C 0.40987 0.91427 0.57910
 C1505 C 0.38325 0.89642 0.56951
 C1506 C 0.36514 0.87757 0.58756
 C1507 C 0.38857 0.87727 0.67108
 C1508 C 0.40722 0.89488 0.65281
 C1509 C 0.32083 0.84041 0.59694
 C1510 C 0.33881 0.85903 0.57867
 H1511 H 0.39494 0.87791 0.69243
 H1512 H 0.42744 0.90861 0.66056
 H1513 H 0.30081 0.82645 0.58916
 H1514 H 0.33207 0.85886 0.55740
 H1515 H 0.29014 0.80744 0.63578
 H1516 H 0.35013 0.84271 0.70175
 H1517 H 0.43832 0.92700 0.61448
 H1518 H 0.37684 0.89708 0.54817
 C1519 C 0.35900 1.14916 -0.13001
 C1520 C 0.32823 1.16071 -0.12221
 C1521 C 0.31006 1.17872 -0.14077
 C1522 C 0.32229 1.18437 -0.16709
 C1523 C 0.35341 1.17294 -0.17427
 C1524 C 0.37187 1.15547 -0.15585
 C1525 C 0.37778 1.12939 -0.11105
 C1526 C 0.40831 1.11767 -0.11913
 C1527 C 0.42559 1.09805 -0.10156
 C1528 C 0.41242 1.08955 -0.07620
 C1529 C 0.38197 1.10191 -0.06811
 C1530 C 0.36451 1.12194 -0.08555
 C1531 C 0.40274 1.14369 -0.16300
 C1532 C 0.42070 1.12518 -0.14491
 C1533 C 0.31607 1.15335 -0.09627
 C1534 C 0.33383 1.13424 -0.07831
 H1535 H 0.41295 1.14854 -0.18285
 H1536 H 0.44428 1.11629 -0.15132
 H1537 H 0.29240 1.16208 -0.08994
 H1538 H 0.32330 1.12881 -0.05868
 H1539 H 0.28608 1.18735 -0.13515
 H1540 H 0.36320 1.17748 -0.19435
 H1541 H 0.44899 1.08874 -0.10801
 H1542 H 0.37167 1.09553 -0.04861
 C1543 C 0.85157 0.64121 0.36909
 C1544 C 0.84211 0.67153 0.37663
 C1545 C 0.82506 0.69018 0.35787
 C1546 C 0.81821 0.67872 0.33165
 C1547 C 0.82770 0.64816 0.32466
 C1548 C 0.84424 0.62932 0.34326
 C1549 C 0.87011 0.62174 0.38836
 C1550 C 0.87979 0.59161 0.38055
 C1551 C 0.89847 0.57362 0.39842
 C1552 C 0.90801 0.58566 0.42379
 C1553 C 0.89749 0.61565 0.43165
 C1554 C 0.87849 0.63386 0.41392
 C1555 C 0.85393 0.59891 0.33635
 C1556 C 0.87136 0.58033 0.35472
 C1557 C 0.85036 0.68264 0.40261
 C1558 C 0.86832 0.66416 0.42090
 H1559 H 0.84824 0.58949 0.31649
 H1560 H 0.87869 0.55710 0.34852
 H1561 H 0.84323 0.70594 0.40873
 H1562 H 0.87455 0.67379 0.44057
 H1563 H 0.81786 0.71368 0.36337
 H1564 H 0.82214 0.63894 0.30469
 H1565 H 0.90640 0.55056 0.39219
 H1566 H 0.90474 0.62506 0.45117
 C1567 C 0.64118 1.15017 0.12910
 C1568 C 0.67219 1.16133 0.12151
 C1569 C 0.69035 1.17936 0.14010
 C1570 C 0.67784 1.18539 0.16627
 C1571 C 0.64648 1.17437 0.17323
 C1572 C 0.62803 1.15690 0.15476
 C1573 C 0.62243 1.13034 0.11014
 C1574 C 0.59164 1.11901 0.11803
 C1575 C 0.57438 1.09931 0.10049
 C1576 C 0.58780 1.09033 0.07534
 C1577 C 0.61850 1.10231 0.06743
 C1578 C 0.63595 1.12243 0.08484
 C1579 C 0.59693 1.14550 0.16172
 C1580 C 0.57899 1.12696 0.14362
 C1581 C 0.68463 1.15353 0.09575
 C1582 C 0.66688 1.13435 0.07779
 H1583 H 0.58651 1.15069 0.18143
 H1584 H 0.55522 1.11836 0.14988
 H1585 H 0.70849 1.16195 0.08957
 H1586 H 0.67762 1.12858 0.05832
 H1587 H 0.71453 1.18766 0.13465
 H1588 H 0.63651 1.17920 0.19319
 H1589 H 0.55079 1.09031 0.10682
 H1590 H 0.62900 1.09556 0.04809
 C1591 C 1.14973 0.64377 0.62880
 C1592 C 1.15731 0.67475 0.62177
 C1593 C 1.17433 0.69361 0.64048
 C1594 C 1.18296 0.68162 0.66614
 C1595 C 1.17556 0.65034 0.67248
 C1596 C 1.15903 0.63136 0.65398
 C1597 C 1.13096 0.62411 0.60977
 C1598 C 1.12299 0.59338 0.61718
 C1599 C 1.10394 0.57522 0.59967
 C1600 C 1.09245 0.58761 0.57502
 C1601 C 1.10133 0.61822 0.56747
 C1602 C 1.12057 0.63666 0.58489
 C1603 C 1.15114 0.60034 0.66044
 C1604 C 1.13345 0.58164 0.64232
 C1605 C 1.14710 0.68628 0.59643
 C1606 C 1.12900 0.66760 0.57834
 H1607 H 1.15837 0.59055 0.67981
 H1608 H 1.12748 0.55794 0.64821
 H1609 H 1.15275 0.71009 0.59067
 H1610 H 1.12122 0.67758 0.55919
 H1611 H 1.17994 0.71766 0.63548
 H1612 H 1.18255 0.64071 0.69199
 H1613 H 1.09732 0.55169 0.60562
 H1614 H 1.09256 0.62793 0.54851
 C1615 C 0.64045 0.84983 -0.12921
 C1616 C 0.62740 0.84313 -0.15492
 C1617 C 0.64590 0.82569 -0.17334
 C1618 C 0.67721 0.81467 -0.16629
 C1619 C 0.68962 0.82067 -0.14009
 C1620 C 0.67141 0.83867 -0.12153
 C1621 C 0.62165 0.86963 -0.11029
 C1622 C 0.63510 0.87751 -0.08495
 C1623 C 0.61764 0.89763 -0.06759
 C1624 C 0.58701 0.90965 -0.07558
 C1625 C 0.57364 0.90069 -0.10076
 C1626 C 0.59092 0.88098 -0.11826
 C1627 C 0.68375 0.84643 -0.09574
 C1628 C 0.66597 0.86559 -0.07782
 C1629 C 0.59634 0.85453 -0.16195
 C1630 C 0.57835 0.87306 -0.14389
 H1631 H 0.70758 0.83801 -0.08950
 H1632 H 0.67664 0.87135 -0.05831
 H1633 H 0.58600 0.84936 -0.18170
 H1634 H 0.55463 0.88167 -0.15021
 H1635 H 0.63600 0.82087 -0.19334
 H1636 H 0.71375 0.81236 -0.13457
 H1637 H 0.62809 0.90437 -0.04823
 H1638 H 0.55010 0.90972 -0.10713
 C1639 C 1.14836 0.35882 0.36948
 C1640 C 1.15784 0.32856 0.37719
 C1641 C 1.17492 0.30977 0.35853
 C1642 C 1.18180 0.32105 0.33226
 C1643 C 1.17233 0.35157 0.32513
 C1644 C 1.15573 0.37053 0.34360
 C1645 C 1.12976 0.37842 0.38861
 C1646 C 1.12004 0.40847 0.38062
 C1647 C 1.10129 0.42658 0.39836
 C1648 C 1.09176 0.41474 0.42379
 C1649 C 1.10231 0.38482 0.43184
 C1650 C 1.12135 0.36649 0.41422
 C1651 C 1.14603 0.40088 0.33651
 C1652 C 1.12852 0.41958 0.35475
 C1653 C 1.14954 0.31765 0.40321
 C1654 C 1.13154 0.33625 0.42138
 H1655 H 1.15175 0.41016 0.31660
 H1656 H 1.12117 0.44274 0.34840
 H1657 H 1.15668 0.29439 0.40947
 H1658 H 1.12529 0.32677 0.44110
 H1659 H 1.18210 0.28631 0.36416
 H1660 H 1.17791 0.36066 0.30511
 H1661 H 1.09334 0.44958 0.39200
 H1662 H 1.09506 0.37555 0.45141
 C1663 C 0.35967 0.85038 0.12956
 C1664 C 0.32880 0.83897 0.12182
 C1665 C 0.31063 0.82092 0.14036
 C1666 C 0.32297 0.81511 0.16661
 C1667 C 0.35419 0.82636 0.17373
 C1668 C 0.37265 0.84387 0.15532
 C1669 C 0.37841 0.87024 0.11066
 C1670 C 0.40903 0.88185 0.11869
 C1671 C 0.42625 0.90162 0.10119
 C1672 C 0.41292 0.91038 0.07596
 C1673 C 0.38241 0.89811 0.06791
 C1674 C 0.36502 0.87793 0.08526
 C1675 C 0.40361 0.85551 0.16242
 C1676 C 0.42155 0.87411 0.14437
 C1677 C 0.31652 0.84654 0.09598
 C1678 C 0.33425 0.86575 0.07806
 H1679 H 0.41390 0.85049 0.18221
 H1680 H 0.44519 0.88292 0.15073
 H1681 H 0.29277 0.83792 0.08969
 H1682 H 0.32363 0.87137 0.05851
 H1683 H 0.28657 0.81243 0.13479
 H1684 H 0.36403 0.82167 0.19376
 H1685 H 0.44970 0.91087 0.10761
 H1686 H 0.37200 0.90469 0.04850
 C1687 C 0.85231 0.35922 0.63094
 C1688 C 0.84267 0.32901 0.62318
 C1689 C 0.82548 0.31026 0.64179
 C1690 C 0.81863 0.32151 0.66807
 C1691 C 0.82827 0.35199 0.67526
 C1692 C 0.84499 0.37092 0.65683
 C1693 C 0.87103 0.37879 0.61185
 C1694 C 0.88091 0.40880 0.61989
 C1695 C 0.89976 0.42687 0.60217
 C1696 C 0.90923 0.41502 0.57672
 C1697 C 0.89853 0.38515 0.56864
 C1698 C 0.87939 0.36686 0.58622
 C1699 C 0.85486 0.40123 0.66397
 C1700 C 0.87248 0.41989 0.64577
 C1701 C 0.85092 0.31810 0.59714
 C1702 C 0.86903 0.33667 0.57901
 H1703 H 0.84918 0.41049 0.68389
 H1704 H 0.87995 0.44302 0.65215
 H1705 H 0.84365 0.29488 0.59085
 H1706 H 0.87524 0.32720 0.55928
 H1707 H 0.81816 0.28683 0.63612
 H1708 H 0.82272 0.36106 0.69529
 H1709 H 0.90784 0.44983 0.60855
 H1710 H 0.90572 0.37589 0.54905
 C1711 C 1.13944 1.15000 0.62902
 C1712 C 1.17155 1.15915 0.62265
 C1713 C 1.18932 1.17704 0.64150
 C1714 C 1.17531 1.18499 0.66672
 C1715 C 1.14298 1.17590 0.67253
 C1716 C 1.12490 1.15855 0.65375
 C1717 C 1.12097 1.13037 0.60979
 C1718 C 1.08909 1.12095 0.61649
 C1719 C 1.07210 1.10126 0.59882
 C1720 C 1.08685 1.09041 0.57478
 C1721 C 1.11859 1.10061 0.56794
 C1722 C 1.13582 1.12065 0.58549
 C1723 C 1.09274 1.14911 0.65947
 C1724 C 1.07508 1.13069 0.64110
 C1725 C 1.18538 1.14958 0.59787
 C1726 C 1.16786 1.13059 0.57965
 H1727 H 1.08125 1.15572 0.67845
 H1728 H 1.05045 1.12358 0.64641
 H1729 H 1.21012 1.15644 0.59269
 H1730 H 1.17962 1.12337 0.56097
 H1731 H 1.21428 1.18386 0.63697
 H1732 H 1.13194 1.18222 0.69178
 H1733 H 1.04765 1.09365 0.60423
 H1734 H 1.13009 1.09237 0.54946
 C1735 C 0.63837 0.65033 0.12867
 C1736 C 0.67041 0.65960 0.12222
 C1737 C 0.68832 0.67719 0.14116
 C1738 C 0.67450 0.68470 0.16654
 C1739 C 0.64222 0.67555 0.17244
 C1740 C 0.62400 0.65848 0.15357
 C1741 C 0.61981 0.63089 0.10938
 C1742 C 0.58803 0.62127 0.11618
 C1743 C 0.57105 0.60161 0.09849
 C1744 C 0.58577 0.59098 0.07437
 C1745 C 0.61733 0.60147 0.06738
 C1746 C 0.63455 0.62148 0.08494
 C1747 C 0.59191 0.64892 0.15938
 C1748 C 0.57416 0.63068 0.14093
 C1749 C 0.68406 0.65043 0.09726
 C1750 C 0.66647 0.63161 0.07898
 H1751 H 0.58056 0.65525 0.17848
 H1752 H 0.54961 0.62341 0.14631
 H1753 H 0.70874 0.65743 0.09202
 H1754 H 0.67811 0.62463 0.06017
 H1755 H 0.71324 0.68409 0.13659
 H1756 H 0.63134 0.68158 0.19182
 H1757 H 0.54671 0.59378 0.10399
 H1758 H 0.62877 0.59339 0.04882
 C1759 C 1.13947 0.84967 0.37030
 C1760 C 1.17140 0.84018 0.37682
 C1761 C 1.18923 0.82244 0.35792
 C1762 C 1.17546 0.81498 0.33248
 C1763 C 1.14331 0.82445 0.32649
 C1764 C 1.12517 0.84165 0.34533
 C1765 C 1.12092 0.86907 0.38964
 C1766 C 1.08920 0.87880 0.38281
 C1767 C 1.07213 0.89824 0.40063
 C1768 C 1.08665 0.90852 0.42497
 C1769 C 1.11822 0.89801 0.43191
 C1770 C 1.13553 0.87822 0.41421
 C1771 C 1.09317 0.85143 0.33946
 C1772 C 1.07544 0.86962 0.35793
 C1773 C 1.18499 0.84920 0.40186
 C1774 C 1.16740 0.86797 0.42019
 H1775 H 1.08187 0.84523 0.32030
 H1776 H 1.05094 0.87699 0.35251
 H1777 H 1.20960 0.84207 0.40716
 H1778 H 1.17898 0.87476 0.43907
 H1779 H 1.21404 0.81533 0.36259
 H1780 H 1.13243 0.81851 0.30709
 H1781 H 1.04782 0.90609 0.39511
 H1782 H 1.12955 0.90581 0.45062
 C1783 C 0.63834 0.34923 -0.12928
 C1784 C 0.62400 0.34121 -0.15424
 C1785 C 0.64220 0.32420 -0.17314
 C1786 C 0.67443 0.31496 -0.16722
 C1787 C 0.68822 0.32235 -0.14180
 C1788 C 0.67033 0.33988 -0.12282
 C1789 C 0.61979 0.36857 -0.10993
 C1790 C 0.63450 0.37784 -0.08543
 C1791 C 0.61729 0.39775 -0.06780
 C1792 C 0.58575 0.40827 -0.07477
 C1793 C 0.57107 0.39780 -0.09897
 C1794 C 0.58805 0.37825 -0.11673
 C1795 C 0.68396 0.34892 -0.09781
 C1796 C 0.66639 0.36765 -0.07947
 C1797 C 0.59195 0.35084 -0.16004
 C1798 C 0.57421 0.36898 -0.14154
 H1799 H 0.70861 0.34186 -0.09256
 H1800 H 0.67801 0.37452 -0.06062
 H1801 H 0.58062 0.34461 -0.17918
 H1802 H 0.54968 0.37630 -0.14692
 H1803 H 0.63134 0.31828 -0.19255
 H1804 H 0.71311 0.31539 -0.13721
 H1805 H 0.62871 0.40571 -0.04919
 H1806 H 0.54676 0.40566 -0.10447
 C1807 C 0.86118 1.14889 0.36968
 C1808 C 0.82948 1.15881 0.37648
 C1809 C 0.81166 1.17674 0.35771
 C1810 C 0.82522 1.18401 0.33217
 C1811 C 0.85716 1.17411 0.32591
 C1812 C 0.87528 1.15667 0.34458
 C1813 C 0.87969 1.12928 0.38887
 C1814 C 0.91117 1.11909 0.38177
 C1815 C 0.92819 1.09948 0.39949
 C1816 C 0.91384 1.08954 0.42399
 C1817 C 0.88251 1.10048 0.43118
 C1818 C 0.86526 1.12041 0.41359
 C1819 C 0.90705 1.14645 0.33843
 C1820 C 0.92474 1.12803 0.35676
 C1821 C 0.81608 1.15003 0.40164
 C1822 C 0.83363 1.13109 0.41984
 H1823 H 0.91820 1.15246 0.31917
 H1824 H 0.94906 1.12032 0.35113
 H1825 H 0.79164 1.15750 0.40715
 H1826 H 0.82221 1.12451 0.43885
 H1827 H 0.78701 1.18417 0.36260
 H1828 H 0.86790 1.17989 0.30641
 H1829 H 0.95232 1.09128 0.39379
 H1830 H 0.87133 1.09294 0.45002
 C1831 C 0.36037 0.64794 -0.13058
 C1832 C 0.32864 0.65779 -0.12384
 C1833 C 0.31077 0.67552 -0.14269
 C1834 C 0.32434 0.68270 -0.16825
 C1835 C 0.35627 0.67281 -0.17450
 C1836 C 0.37444 0.65557 -0.15573
 C1837 C 0.37898 0.62864 -0.11124
 C1838 C 0.41052 0.61858 -0.11825
 C1839 C 0.42764 0.59926 -0.10038
 C1840 C 0.41330 0.58944 -0.07584
 C1841 C 0.38192 0.60027 -0.06872
 C1842 C 0.36458 0.61994 -0.08646
 C1843 C 0.40627 0.64545 -0.16180
 C1844 C 0.42406 0.62733 -0.14332
 C1845 C 0.31527 0.64921 -0.09861
 C1846 C 0.33290 0.63053 -0.08027
 H1847 H 0.41740 0.65135 -0.18110
 H1848 H 0.44843 0.61970 -0.14888
 H1849 H 0.29082 0.65666 -0.09314
 H1850 H 0.32152 0.62409 -0.06122
 H1851 H 0.28612 0.68296 -0.13780
 H1852 H 0.36701 0.67854 -0.19400
 H1853 H 0.45181 0.59115 -0.10602
 H1854 H 0.37076 0.59281 -0.04985
 C1855 C 0.86041 0.85055 0.63019
 C1856 C 0.82860 0.84074 0.62354
 C1857 C 0.81085 0.82281 0.64237
 C1858 C 0.82458 0.81544 0.66783
 C1859 C 0.85662 0.82521 0.67393
 C1860 C 0.87467 0.84264 0.65519
 C1861 C 0.87886 0.87017 0.61095
 C1862 C 0.91044 0.88023 0.61790
 C1863 C 0.92742 0.89985 0.60016
 C1864 C 0.91293 0.90995 0.57576
 C1865 C 0.88150 0.89914 0.56870
 C1866 C 0.86428 0.87918 0.58633
 C1867 C 0.90654 0.85274 0.66119
 C1868 C 0.92417 0.87117 0.64281
 C1869 C 0.81505 0.84965 0.59848
 C1870 C 0.83254 0.86861 0.58023
 H1871 H 0.91780 0.84664 0.68038
 H1872 H 0.94856 0.87879 0.64833
 H1873 H 0.79053 0.84228 0.59309
 H1874 H 0.82100 0.87530 0.56131
 H1875 H 0.78612 0.81547 0.63761
 H1876 H 0.86747 0.81935 0.69335
 H1877 H 0.95163 0.90794 0.60576
 H1878 H 0.87021 0.90681 0.54995
 C1879 C 0.36143 0.34941 0.12938
 C1880 C 0.32947 0.33992 0.12291
 C1881 C 0.31162 0.32231 0.14188
 C1882 C 0.32543 0.31500 0.16731
 C1883 C 0.35762 0.32439 0.17324
 C1884 C 0.37578 0.34147 0.15434
 C1885 C 0.37991 0.36882 0.11004
 C1886 C 0.41162 0.37865 0.11684
 C1887 C 0.42855 0.39825 0.09908
 C1888 C 0.41385 0.40863 0.07487
 C1889 C 0.38235 0.39796 0.06789
 C1890 C 0.36520 0.37800 0.08552
 C1891 C 0.40779 0.35125 0.16016
 C1892 C 0.42548 0.36947 0.14167
 C1893 C 0.31582 0.34886 0.09790
 C1894 C 0.33334 0.36766 0.07955
 H1895 H 0.41913 0.34510 0.17931
 H1896 H 0.44998 0.37690 0.14705
 H1897 H 0.29120 0.34169 0.09264
 H1898 H 0.32171 0.37446 0.06070
 H1899 H 0.28676 0.31524 0.13729
 H1900 H 0.36850 0.31852 0.19266
 H1901 H 0.45284 0.40623 0.10458
 H1902 H 0.37092 0.40584 0.04926
   
