data_POSCAR
  _audit_creation_date              2014-09-24
  _audit_creation_method            'ToBaCCo'
  _symmetry_space_group_name_H-M    'P1'
  _symmetry_Int_Tables_number       1
  _symmetry_cell_setting            triclinic
  loop_
  _symmetry_equiv_pos_as_xyz
 x,y,z
_cell_length_a 56.0865
_cell_length_b 57.8239
_cell_length_c 55.5776
_cell_angle_alpha 89.646000
_cell_angle_beta 89.740500
_cell_angle_gamma 89.818800
loop_
  _atom_site_label
  _atom_site_type_symbol
  _atom_site_fract_x
  _atom_site_fract_y
  _atom_site_fract_z
C1 C 0.36568 0.32840 0.34214
 N2 N 0.35793 0.34863 0.33250
 C3 C 0.33728 0.35859 0.34034
 N4 N 0.32428 0.34794 0.35808
 C5 C 0.33207 0.32745 0.36758
 N6 N 0.35263 0.31804 0.35947
 C7 C 0.36829 0.83166 -0.16596
 N8 N 0.36112 0.85071 -0.17843
 C9 C 0.34191 0.86318 -0.17103
 N10 N 0.32969 0.85632 -0.15106
 C11 C 0.33667 0.83732 -0.13846
 N12 N 0.35598 0.82511 -0.14597
 C13 C 0.85606 0.33884 -0.16556
 N14 N 0.84674 0.35907 -0.17407
 C15 C 0.82804 0.36931 -0.16288
 N16 N 0.81859 0.35907 -0.14318
 C17 C 0.82711 0.33879 -0.13446
 N18 N 0.84607 0.32851 -0.14570
 C19 C 0.87724 0.83683 0.33223
 N20 N 0.86960 0.82500 0.35194
 C21 C 0.85009 0.83196 0.36437
 N22 N 0.83803 0.85109 0.35704
 C23 C 0.84559 0.86328 0.33749
 N24 N 0.86513 0.85602 0.32502
 C25 C 0.63377 0.66792 0.33025
 N26 N 0.64345 0.67784 0.34999
 C27 C 0.66303 0.66875 0.36056
 N28 N 0.67301 0.64942 0.35133
 C29 C 0.66369 0.63906 0.33164
 N30 N 0.64405 0.64848 0.32087
 C31 C 0.63721 0.16664 -0.16030
 N32 N 0.64585 0.14659 -0.17006
 C33 C 0.66484 0.13555 -0.15975
 N34 N 0.67489 0.14475 -0.13987
 C35 C 0.66667 0.16452 -0.13008
 N36 N 0.64785 0.17545 -0.14035
 C37 C 0.12894 0.66627 -0.17043
 N38 N 0.13853 0.64575 -0.17670
 C39 C 0.15844 0.63734 -0.16611
 N40 N 0.16901 0.64986 -0.14846
 C41 C 0.15933 0.67048 -0.14146
 N42 N 0.13935 0.67868 -0.15267
 C43 C 0.14192 0.16796 0.33417
 N44 N 0.15442 0.14909 0.32690
 C45 C 0.17422 0.14196 0.33896
 N46 N 0.18140 0.15399 0.35872
 C47 C 0.16892 0.17294 0.36618
 N48 N 0.14934 0.17975 0.35376
 C49 C 0.63706 0.33463 0.66797
 N50 N 0.64647 0.35480 0.67634
 C51 C 0.66508 0.36497 0.66469
 N52 N 0.67432 0.35476 0.64487
 C53 C 0.66542 0.33469 0.63641
 N54 N 0.64671 0.32459 0.64802
 C55 C 0.63871 0.83813 1.16879
 N56 N 0.64652 0.82862 1.14779
 C57 C 0.66554 0.83760 1.13597
 N58 N 0.67687 0.85600 1.14533
 C59 C 0.66979 0.86569 1.16629
 N60 N 0.65055 0.85668 1.17816
 C61 C 0.13662 0.34042 1.17089
 N62 N 0.14640 0.32964 1.15163
 C63 C 0.16617 0.33826 1.14055
 N64 N 0.17645 0.35795 1.14916
 C65 C 0.16655 0.36900 1.16841
 N66 N 0.14676 0.36007 1.17898
 C67 C 0.13186 0.83825 0.66783
 N68 N 0.14091 0.85747 0.67832
 C69 C 0.16105 0.86752 0.66997
 N70 N 0.17227 0.85825 0.65071
 C71 C 0.16376 0.83910 0.63972
 N72 N 0.14343 0.82893 0.64839
 C73 C 0.35985 0.66593 0.66185
 N74 N 0.34756 0.67405 0.64259
 C75 C 0.32720 0.66351 0.63533
 N76 N 0.31909 0.64464 0.64762
 C77 C 0.33141 0.63633 0.66690
 N78 N 0.35166 0.64713 0.67389
 C79 C 0.36779 0.17648 1.16570
 N80 N 0.35832 0.15761 1.17668
 C81 C 0.33862 0.14695 1.16759
 N82 N 0.32829 0.15565 1.14705
 C83 C 0.33800 0.17462 1.13592
 N84 N 0.35748 0.18458 1.14553
 C85 C 0.86725 0.66376 1.16904
 N86 N 0.85945 0.67582 1.14944
 C87 C 0.84015 0.66840 1.13699
 N88 N 0.82872 0.64892 1.14422
 C89 C 0.83617 0.63682 1.16377
 N90 N 0.85542 0.64437 1.17613
 C91 C 0.86039 0.15874 0.66789
 N92 N 0.85181 0.13933 0.67866
 C93 C 0.83177 0.12897 0.67075
 N94 N 0.82020 0.13816 0.65163
 C95 C 0.82832 0.15758 0.64047
 N96 N 0.84848 0.16807 0.64875
 C97 C 0.33584 0.37004 0.67689
 N98 N 0.35583 0.35934 0.68481
 C99 C 0.36362 0.33937 0.67473
 N100 N 0.35101 0.32996 0.65626
 C101 C 0.33081 0.34068 0.64810
 N102 N 0.32339 0.36061 0.65861
 C103 C 0.32810 0.86784 0.16276
 N104 N 0.31916 0.85591 0.14367
 C105 C 0.33021 0.83633 0.13583
 N106 N 0.35010 0.82884 0.14725
 C107 C 0.35916 0.84034 0.16626
 N108 N 0.34809 0.85990 0.17404
 C109 C 0.83435 0.36653 0.16833
 N110 N 0.82619 0.35453 0.14909
 C111 C 0.83717 0.33476 0.14194
 N112 N 0.85648 0.32700 0.15414
 C113 C 0.86492 0.33878 0.17333
 N114 N 0.85374 0.35853 0.18049
 C115 C 0.82359 0.86701 0.66317
 N116 N 0.84343 0.85816 0.67385
 C117 C 0.85457 0.83927 0.66437
 N118 N 0.84563 0.82925 0.64429
 C119 C 0.82585 0.83801 0.63359
 N120 N 0.81499 0.85679 0.64314
 C121 C 0.66379 0.63187 0.65624
 N122 N 0.64375 0.64104 0.66646
 C123 C 0.63336 0.66011 0.65644
 N124 N 0.64337 0.67002 0.63669
 C125 C 0.66342 0.66124 0.62670
 N126 N 0.67352 0.64217 0.63650
 C127 C 0.66980 0.13170 0.17556
 N128 N 0.67994 0.14127 0.15563
 C129 C 0.67083 0.16112 0.14592
 N130 N 0.65145 0.17129 0.15637
 C131 C 0.64132 0.16162 0.17630
 N132 N 0.65064 0.14200 0.18565
 C133 C 0.17176 0.62928 0.16604
 N134 N 0.15178 0.64049 0.17376
 C135 C 0.14334 0.65922 0.16161
 N136 N 0.15496 0.66668 0.14169
 C137 C 0.17486 0.65578 0.13372
 N138 N 0.18338 0.63709 0.14601
 C139 C 0.16053 0.13068 0.67442
 N140 N 0.14045 0.14039 0.68358
 C141 C 0.13165 0.16047 0.67429
 N142 N 0.14331 0.17094 0.65561
 C143 C 0.16350 0.16118 0.64632
 N144 N 0.17189 0.14117 0.65588
 C145 C 0.33593 0.63869 0.33285
 N146 N 0.35498 0.65018 0.32353
 C147 C 0.36229 0.67049 0.33306
 N148 N 0.35033 0.67944 0.35219
 C149 C 0.33118 0.66824 0.36175
 N150 N 0.32398 0.64786 0.35194
 C151 C 0.32746 0.13511 0.83390
 N152 N 0.34759 0.14325 0.82341
 C153 C 0.35775 0.16325 0.83088
 N154 N 0.34740 0.17531 0.84931
 C155 C 0.32699 0.16717 0.85990
 N156 N 0.31730 0.14717 0.85199
 C157 C 0.83235 0.63283 0.83323
 N158 N 0.84990 0.64539 0.82232
 C159 C 0.85666 0.66611 0.83180
 N160 N 0.84546 0.67421 0.85186
 C161 C 0.82785 0.66181 0.86256
 N162 N 0.82156 0.64124 0.85317
 C163 C 0.83534 0.13362 0.33525
 N164 N 0.82620 0.14499 0.35458
 C165 C 0.83668 0.16461 0.36270
 N166 N 0.85642 0.17281 0.35132
 C167 C 0.86573 0.16156 0.33206
 N168 N 0.85507 0.14202 0.32406
 C169 C 0.67182 0.36976 0.33761
 N170 N 0.68030 0.35886 0.35748
 C171 C 0.67038 0.33880 0.36545
 N172 N 0.65170 0.32963 0.35326
 C173 C 0.64307 0.34052 0.33329
 N174 N 0.65328 0.36048 0.32557
 C175 C 0.65596 0.86299 0.83504
 N176 N 0.66764 0.85561 0.85506
 C177 C 0.66063 0.83602 0.86665
 N178 N 0.64190 0.82382 0.85806
 C179 C 0.63018 0.83096 0.83806
 N180 N 0.63734 0.85051 0.82654
 C181 C 0.15838 0.36809 0.83361
 N182 N 0.13866 0.35902 0.82329
 C183 C 0.12917 0.33887 0.83128
 N184 N 0.13960 0.32765 0.85003
 C185 C 0.15939 0.33652 0.86068
 N186 N 0.16882 0.35672 0.85229
 C187 C 0.16938 0.86973 0.32618
 N188 N 0.15045 0.85959 0.31527
 C189 C 0.14113 0.83959 0.32379
 N190 N 0.15085 0.82960 0.34342
 C191 C 0.16972 0.83915 0.35476
 N192 N 0.17918 0.85939 0.34609
 O193 O 0.25140 1.03343 0.27770
 O194 O 0.28743 0.98891 0.24631
 O195 O 0.28268 1.03433 0.24266
 O196 O 0.25637 0.98822 0.28113
 O197 O 0.22762 0.98395 0.25457
 O198 O 0.25418 1.02960 0.21594
 O199 O 0.25872 0.98422 0.21981
 O200 O 0.22301 1.02891 0.25081
 Cu201 Cu 0.27236 1.01173 0.26451
 Cu202 Cu 0.23809 1.00626 0.23264
 C203 C 0.23105 1.03889 0.26940
 C204 C 0.27900 0.97856 0.22811
 C205 C 0.27278 1.04007 0.22294
 C206 C 0.23758 0.97802 0.27419
 O207 O 0.25250 0.52665 0.79001
 O208 O 0.27880 0.48202 0.75103
 O209 O 0.27710 0.52716 0.75001
 O210 O 0.25181 0.48118 0.78916
 O211 O 0.21951 0.48144 0.76658
 O212 O 0.24458 0.52655 0.72779
 O213 O 0.24635 0.48174 0.72867
 O214 O 0.22018 0.52627 0.76748
 Cu215 Cu 0.26834 0.50431 0.77232
 Cu216 Cu 0.22939 0.50401 0.74547
 C217 C 0.23180 0.53419 0.78517
 C218 C 0.26710 0.47417 0.73339
 C219 C 0.26506 0.53463 0.73221
 C220 C 0.23125 0.47334 0.78418
 O221 O 0.76824 -0.02538 0.27843
 O222 O 0.73344 0.01883 0.24491
 O223 O 0.72900 -0.02570 0.25319
 O224 O 0.76648 0.01984 0.27756
 O225 O 0.79096 0.01767 0.24643
 O226 O 0.75330 -0.02929 0.22208
 O227 O 0.75797 0.01477 0.21403
 O228 O 0.79255 -0.02746 0.24718
 Cu229 Cu 0.74688 -0.00283 0.26652
 Cu230 Cu 0.77608 -0.00649 0.22951
 C231 C 0.78666 -0.03380 0.26817
 C232 C 0.74014 0.02442 0.22369
 C233 C 0.73457 -0.03536 0.23359
 C234 C 0.78476 0.02688 0.26631
 O235 O 0.71759 0.52367 0.75093
 O236 O 0.75685 0.47932 0.77688
 O237 O 0.75740 0.52408 0.77492
 O238 O 0.71786 0.47846 0.75209
 O239 O 0.73934 0.47743 0.71872
 O240 O 0.77834 0.52361 0.74118
 O241 O 0.77852 0.47853 0.74361
 O242 O 0.73873 0.52251 0.71733
 Cu243 Cu 0.73529 0.50153 0.76708
 Cu244 Cu 0.76079 0.50041 0.72678
 C245 C 0.72159 0.53075 0.72964
 C246 C 0.77426 0.47134 0.76483
 C247 C 0.77448 0.53168 0.76203
 C248 C 0.72212 0.46997 0.73148
 O249 O 0.25246 0.47432 0.28641
 O250 O 0.22831 0.52005 0.24688
 O251 O 0.22861 0.47513 0.24620
 O252 O 0.25359 0.51990 0.28581
 O253 O 0.28660 0.51983 0.26407
 O254 O 0.26206 0.47421 0.22514
 O255 O 0.26124 0.51936 0.22499
 O256 O 0.28586 0.47415 0.26529
 Cu257 Cu 0.23751 0.49731 0.26855
 Cu258 Cu 0.27734 0.49685 0.24287
 C259 C 0.27316 0.46618 0.28243
 C260 C 0.24056 0.52750 0.22921
 C261 C 0.24100 0.46702 0.22897
 C262 C 0.27418 0.52798 0.28123
 O263 O 0.74056 1.01849 0.71936
 O264 O 0.71174 0.97470 0.75795
 O265 O 0.70689 1.01948 0.75147
 O266 O 0.74508 0.97399 0.72521
 O267 O 0.77211 0.97936 0.75339
 O268 O 0.73411 1.02475 0.77946
 O269 O 0.73895 0.98032 0.78589
 O270 O 0.76783 1.02370 0.74734
 Cu271 Cu 0.72330 0.99603 0.73570
 Cu272 Cu 0.75590 1.00266 0.76938
 C273 C 0.75915 1.02858 0.72688
 C274 C 0.72061 0.96986 0.77837
 C275 C 0.71428 1.03008 0.76991
 C276 C 0.76499 0.96889 0.73476
 O277 O 0.75896 0.52629 0.21821
 O278 O 0.72004 0.48195 0.24548
 O279 O 0.71929 0.52712 0.24270
 O280 O 0.75838 0.48103 0.21912
 O281 O 0.77992 0.48192 0.25225
 O282 O 0.74082 0.52802 0.27584
 O283 O 0.74174 0.48303 0.27851
 O284 O 0.78046 0.52688 0.25139
 Cu285 Cu 0.73703 0.50402 0.22802
 Cu286 Cu 0.76284 0.50511 0.26783
 C287 C 0.77632 0.53417 0.23025
 C288 C 0.72454 0.47476 0.26664
 C289 C 0.72348 0.53551 0.26331
 C290 C 0.77563 0.47345 0.23167
 O291 O 0.25700 -0.02415 0.77677
 O292 O 0.22779 0.02010 0.74056
 O293 O 0.22789 -0.02475 0.74053
 O294 O 0.26063 0.02063 0.77312
 O295 O 0.28990 0.01792 0.74658
 O296 O 0.25713 -0.02607 0.71383
 O297 O 0.25704 0.01894 0.71384
 O298 O 0.28619 -0.02688 0.75015
 Cu299 Cu 0.24045 -0.00188 0.76044
 Cu300 Cu 0.27550 -0.00425 0.72844
 C301 C 0.27634 -0.03327 0.76976
 C302 C 0.23731 0.02730 0.72125
 C303 C 0.23708 -0.03305 0.72146
 C304 C 0.28088 0.02707 0.76516
 O305 O 0.25395 0.29038 0.97621
 O306 O 0.27989 0.25192 1.02310
 O307 O 0.28713 0.25915 0.97661
 O308 O 0.25623 0.29161 1.02311
 O309 O 0.22557 0.26788 1.02196
 O310 O 0.25688 0.23506 0.97367
 O311 O 0.24919 0.22840 1.01979
 O312 O 0.22352 0.26636 0.97423
 Cu313 Cu 0.27220 0.27527 1.00029
 Cu314 Cu 0.23589 0.24745 0.99733
 C315 C 0.23407 0.28445 0.96703
 C316 C 0.26880 0.23357 1.02945
 C317 C 0.27751 0.24186 0.96685
 C318 C 0.23593 0.28553 1.03080
 O319 O 0.25133 0.79300 0.47887
 O320 O 0.28121 0.75761 0.52397
 O321 O 0.28226 0.75924 0.47703
 O322 O 0.24445 0.78531 0.52497
 O323 O 0.21790 0.75780 0.51949
 O324 O 0.25576 0.73137 0.47330
 O325 O 0.25477 0.72969 0.52046
 O326 O 0.22503 0.76533 0.47302
 Cu327 Cu 0.26732 0.77643 0.50169
 Cu328 Cu 0.23571 0.74345 0.49616
 C329 C 0.23348 0.78523 0.46774
 C330 C 0.27351 0.73788 0.53012
 C331 C 0.27526 0.74066 0.46702
 C332 C 0.22466 0.77574 0.53045
 O333 O 0.28298 0.75167 -0.02273
 O334 O 0.24648 0.72120 0.02157
 O335 O 0.25030 0.71985 -0.02519
 O336 O 0.27521 0.75642 0.02330
 O337 O 0.24627 0.78176 0.01748
 O338 O 0.22163 0.74559 -0.03043
 O339 O 0.21743 0.74660 0.01645
 O340 O 0.25445 0.77744 -0.02861
 Cu341 Cu 0.26660 0.73479 -0.00024
 Cu342 Cu 0.23206 0.76535 -0.00685
 C343 C 0.27516 0.76957 -0.03332
 C344 C 0.22587 0.72865 0.02678
 C345 C 0.23159 0.72666 -0.03610
 C346 C 0.26482 0.77534 0.02868
 O347 O 0.27275 0.25880 0.48695
 O348 O 0.24079 0.22689 0.53552
 O349 O 0.24605 0.22195 0.48932
 O350 O 0.27813 0.25396 0.53390
 O351 O 0.25035 0.28095 0.53545
 O352 O 0.21816 0.24879 0.48680
 O353 O 0.21274 0.25367 0.53386
 O354 O 0.24506 0.28595 0.48870
 Cu355 Cu 0.26208 0.23808 0.51145
 Cu356 Cu 0.22902 0.26971 0.51127
 C357 C 0.26401 0.27803 0.47961
 C358 C 0.22087 0.23515 0.54277
 C359 C 0.22712 0.22950 0.47989
 C360 C 0.27021 0.27251 0.54274
 O361 O 0.73727 0.77384 0.97939
 O362 O 0.77203 0.74224 1.02586
 O363 O 0.77414 0.74657 0.97910
 O364 O 0.73647 0.77153 1.02602
 O365 O 0.71167 0.74198 1.02441
 O366 O 0.74923 0.71722 0.97622
 O367 O 0.74707 0.71300 1.02270
 O368 O 0.71237 0.74440 0.97783
 Cu369 Cu 0.75749 0.76151 1.00292
 Cu370 Cu 0.72765 0.72616 1.00003
 C371 C 0.71875 0.76434 0.97081
 C372 C 0.76531 0.72207 1.03209
 C373 C 0.76801 0.72774 0.96943
 C374 C 0.71778 0.76129 1.03323
 O375 O 0.74432 0.20801 0.47929
 O376 O 0.71094 0.23933 0.52522
 O377 O 0.71135 0.23994 0.47809
 O378 O 0.74859 0.21281 0.52593
 O379 O 0.77426 0.24150 0.52242
 O380 O 0.73729 0.26854 0.47635
 O381 O 0.73665 0.26811 0.52327
 O382 O 0.77015 0.23655 0.47585
 Cu383 Cu 0.72634 0.22219 0.50239
 Cu384 Cu 0.75708 0.25647 0.49920
 C385 C 0.76265 0.21673 0.46948
 C386 C 0.71801 0.25889 0.53233
 C387 C 0.71828 0.25914 0.46914
 C388 C 0.76780 0.22277 0.53234
 O389 O 0.77712 0.25233 -0.01556
 O390 O 0.74062 0.22623 0.03196
 O391 O 0.73908 0.22641 -0.01528
 O392 O 0.77299 0.25879 0.03096
 O393 O 0.74687 0.28720 0.02734
 O394 O 0.71328 0.25527 -0.01688
 O395 O 0.71466 0.25494 0.03003
 O396 O 0.75121 0.28096 -0.01893
 Cu397 Cu 0.75992 0.23811 0.00834
 Cu398 Cu 0.72907 0.27236 0.00514
 C399 C 0.77041 0.27092 -0.02561
 C400 C 0.72167 0.23589 0.03932
 C401 C 0.72029 0.23567 -0.02399
 C402 C 0.76539 0.27878 0.03693
 O403 O 0.73208 0.73609 0.47256
 O404 O 0.76288 0.76748 0.52053
 O405 O 0.75989 0.77172 0.47430
 O406 O 0.73251 0.73393 0.51903
 O407 O 0.76282 0.70952 0.51692
 O408 O 0.79056 0.74784 0.47140
 O409 O 0.79329 0.74324 0.51794
 O410 O 0.76254 0.71191 0.47012
 Cu411 Cu 0.74378 0.75471 0.49688
 Cu412 Cu 0.78040 0.72568 0.49375
 C413 C 0.74210 0.71855 0.46322
 C414 C 0.78331 0.76065 0.52746
 C415 C 0.77987 0.76637 0.46519
 C416 C 0.74276 0.71545 0.52572
 O417 O 0.97957 0.24953 0.22251
 O418 O 1.02681 0.22211 0.25887
 O419 O 0.98022 0.22127 0.25895
 O420 O 1.02598 0.24913 0.22135
 O421 O 1.02577 0.27920 0.24565
 O422 O 0.97985 0.25135 0.28323
 O423 O 1.02621 0.25219 0.28315
 O424 O 0.97938 0.27955 0.24687
 Cu425 Cu 1.00316 0.23245 0.23799
 Cu426 Cu 1.00283 0.26859 0.26717
 C427 C 0.97134 0.26916 0.22861
 C428 C 1.03462 0.23263 0.27722
 C429 C 0.97205 0.23160 0.27732
 C430 C 1.03375 0.26890 0.22715
 O431 O 0.52146 0.20945 0.74758
 O432 O 0.47560 0.24199 0.71485
 O433 O 0.52247 0.24180 0.71454
 O434 O 0.47501 0.21502 0.75259
 O435 O 0.47872 0.24356 0.77844
 O436 O 0.52511 0.27006 0.74088
 O437 O 0.47832 0.27062 0.74073
 O438 O 0.52508 0.23770 0.77378
 Cu439 Cu 0.49837 0.22427 0.72991
 Cu440 Cu 0.50212 0.25822 0.76098
 C441 C 0.53138 0.21790 0.76597
 C442 C 0.46885 0.26166 0.72218
 C443 C 0.53194 0.26063 0.72152
 C444 C 0.46858 0.22509 0.77194
 O445 O -0.03013 0.22276 0.74218
 O446 O 0.01552 0.24917 0.78079
 O447 O -0.03115 0.24816 0.78083
 O448 O 0.01625 0.22223 0.74367
 O449 O 0.01655 0.25289 0.71982
 O450 O -0.03106 0.27907 0.75734
 O451 O 0.01566 0.27993 0.75707
 O452 O -0.03027 0.25367 0.71867
 Cu453 Cu -0.00745 0.23252 0.76420
 Cu454 Cu -0.00730 0.26949 0.73590
 C455 C -0.03806 0.23367 0.72395
 C456 C 0.02361 0.26903 0.77526
 C457 C -0.03929 0.26802 0.77541
 C458 C 0.02467 0.23306 0.72563
 O459 O 0.48347 0.28524 0.25346
 O460 O 0.52733 0.25282 0.22028
 O461 O 0.48112 0.24821 0.22642
 O462 O 0.52960 0.27987 0.25770
 O463 O 0.52839 0.25303 0.28606
 O464 O 0.48243 0.22183 0.25523
 O465 O 0.52849 0.22597 0.24867
 O466 O 0.48234 0.25866 0.28213
 Cu467 Cu 0.50531 0.26892 0.23687
 Cu468 Cu 0.50544 0.23741 0.27065
 C469 C 0.47513 0.27782 0.27315
 C470 C 0.53577 0.23418 0.22856
 C471 C 0.47358 0.22937 0.23587
 C472 C 0.53718 0.27143 0.27757
 O473 O 0.97071 0.74714 0.70734
 O474 O 1.01743 0.72033 0.74590
 O475 O 0.97161 0.71408 0.73954
 O476 O 1.01754 0.74601 0.70702
 O477 O 1.01486 0.77469 0.73291
 O478 O 0.96727 0.74236 0.76568
 O479 O 1.01310 0.74902 0.77156
 O480 O 0.96802 0.77556 0.73356
 Cu481 Cu 0.99466 0.72916 0.72249
 Cu482 Cu 0.99044 0.76315 0.75333
 C483 C 0.96133 0.76612 0.71428
 C484 C 1.02325 0.73043 0.76537
 C485 C 0.96139 0.72245 0.75788
 C486 C 1.02442 0.76554 0.71435
 O487 O 0.52098 0.71333 0.23362
 O488 O 0.47511 0.74830 0.20364
 O489 O 0.52165 0.74809 0.20406
 O490 O 0.47468 0.71503 0.23532
 O491 O 0.47488 0.74033 0.26489
 O492 O 0.52229 0.77330 0.23369
 O493 O 0.47530 0.77373 0.23307
 O494 O 0.52151 0.73830 0.26350
 Cu495 Cu 0.49798 0.72878 0.21616
 Cu496 Cu 0.49856 0.75895 0.25176
 C497 C 0.52921 0.71989 0.25365
 C498 C 0.46716 0.76673 0.21308
 C499 C 0.53027 0.76612 0.21365
 C500 C 0.46671 0.72207 0.25545
 O501 O 0.03048 0.74279 0.28125
 O502 O -0.01816 0.71583 0.24623
 O503 O 0.02773 0.70941 0.25018
 O504 O -0.01566 0.74408 0.28221
 O505 O -0.01345 0.77200 0.25505
 O506 O 0.03183 0.73671 0.22256
 O507 O -0.01422 0.74341 0.21890
 O508 O 0.03290 0.77027 0.25359
 Cu509 Cu 0.00580 0.72530 0.26760
 Cu510 Cu 0.00957 0.75826 0.23475
 C511 C 0.03980 0.76140 0.27323
 C512 C -0.02452 0.72535 0.22652
 C513 C 0.03752 0.71697 0.23119
 C514 C -0.02208 0.76375 0.27454
 O515 O 0.47605 0.71421 0.75088
 O516 O 0.52298 0.75049 0.77725
 O517 O 0.47665 0.75107 0.77745
 O518 O 0.52264 0.71256 0.75217
 O519 O 0.52292 0.73388 0.71907
 O520 O 0.47774 0.77271 0.74458
 O521 O 0.52380 0.77171 0.74409
 O522 O 0.47656 0.73600 0.71812
 Cu523 Cu 0.49951 0.72987 0.76775
 Cu524 Cu 0.50039 0.75564 0.72809
 C525 C 0.46811 0.71914 0.73007
 C526 C 0.53128 0.76739 0.76516
 C527 C 0.46946 0.76847 0.76543
 C528 C 0.53065 0.71677 0.73121
 C529 C 0.41891 0.31536 0.30502
 C530 C 0.42631 0.29402 0.31476
 N531 N 0.41439 0.28484 0.33378
 C532 C 0.39520 0.29586 0.34333
 C533 C 0.38740 0.31700 0.33327
 N534 N 0.39964 0.32630 0.31442
 N535 N 0.43068 0.32444 0.28586
 C536 C 0.44932 0.31301 0.27575
 C537 C 0.45643 0.29137 0.28511
 N538 N 0.44482 0.28249 0.30457
 H539 H 0.38592 0.28796 0.35836
 H540 H 0.45820 0.32058 0.26028
 C541 C 0.41600 0.81142 0.79496
 C542 C 0.42357 0.79138 0.80710
 N543 N 0.41314 0.78537 0.82828
 C544 C 0.39528 0.79839 0.83783
 C545 C 0.38738 0.81841 0.82557
 N546 N 0.39818 0.82442 0.80444
 N547 N 0.42623 0.81729 0.77362
 C548 C 0.44364 0.80393 0.76377
 C549 C 0.45116 0.78372 0.77579
 N550 N 0.44094 0.77803 0.79728
 H551 H 0.38725 0.79296 0.85468
 H552 H 0.45141 0.80899 0.74668
 C553 C -0.09588 0.29755 0.81595
 C554 C -0.08583 0.30925 0.79616
 N555 N -0.09459 0.33018 0.78955
 C556 C -0.11302 0.33998 0.80171
 C557 C -0.12341 0.32835 0.82151
 N558 N -0.11444 0.30731 0.82820
 N559 N -0.08702 0.27652 0.82240
 C560 C -0.06869 0.26667 0.80992
 C561 C -0.05870 0.27832 0.78995
 N562 N -0.06761 0.29942 0.78368
 H563 H -0.11951 0.35671 0.79581
 H564 H -0.06210 0.24985 0.81543
 C565 C -0.07477 0.79831 0.31515
 C566 C -0.06711 0.80770 0.29311
 N567 N -0.07751 0.82743 0.28475
 C568 C -0.09540 0.83798 0.29731
 C569 C -0.10344 0.82814 0.31917
 N570 N -0.09262 0.80863 0.32744
 N571 N -0.06474 0.77865 0.32371
 C572 C -0.04746 0.76765 0.31110
 C573 C -0.03990 0.77660 0.28871
 N574 N -0.04983 0.79662 0.28026
 H575 H -0.10352 0.85351 0.29004
 H576 H -0.03993 0.75188 0.31846
 C577 C 0.58523 0.68248 0.28698
 C578 C 0.57492 0.70193 0.29800
 N579 N 0.58344 0.70934 0.31934
 C580 C 0.60196 0.69837 0.33015
 C581 C 0.61273 0.67906 0.31908
 N582 N 0.60393 0.67149 0.29770
 N583 N 0.57660 0.67522 0.26553
 C584 C 0.55831 0.68661 0.25456
 C585 C 0.54821 0.70631 0.26544
 N586 N 0.55681 0.71337 0.28701
 H587 H 0.60832 0.70491 0.34714
 H588 H 0.55194 0.68051 0.23738
 C589 C 0.58812 0.18091 0.79895
 C590 C 0.58004 0.20198 0.80846
 N591 N 0.59083 0.21077 0.82816
 C592 C 0.60937 0.19954 0.83878
 C593 C 0.61781 0.17841 0.82924
 N594 N 0.60678 0.16967 0.80945
 N595 N 0.57726 0.17211 0.77927
 C596 C 0.55878 0.18345 0.76860
 C597 C 0.55074 0.20473 0.77792
 N598 N 0.56167 0.21343 0.79774
 H599 H 0.61748 0.20722 0.85445
 H600 H 0.55063 0.17600 0.75284
 C601 C 1.07905 0.70398 0.80871
 C602 C 1.07079 0.69162 0.78870
 N603 N 1.08115 0.67122 0.78291
 C604 C 1.09950 0.66261 0.79607
 C605 C 1.10817 0.67505 0.81596
 N606 N 1.09760 0.69551 0.82182
 N607 N 1.06857 0.72437 0.81448
 C608 C 1.05033 0.73305 0.80110
 C609 C 1.04225 0.72088 0.78081
 N610 N 1.05274 0.70036 0.77519
 H611 H 1.10740 0.64632 0.79075
 H612 H 1.04244 0.74944 0.80611
 C613 C 1.09155 0.20413 0.31722
 C614 C 1.08345 0.19319 0.29636
 N615 N 1.09458 0.17370 0.28860
 C616 C 1.11358 0.16473 0.30068
 C617 C 1.12196 0.17584 0.32150
 N618 N 1.11050 0.19526 0.32920
 N619 N 1.08065 0.22370 0.32495
 C620 C 1.06205 0.23299 0.31264
 C621 C 1.05397 0.22227 0.29154
 N622 N 1.06488 0.20248 0.28397
 H623 H 1.12211 0.14925 0.29391
 H624 H 1.05383 0.24871 0.31918
 C625 C 0.58862 0.29290 0.68335
 C626 C 0.57916 0.30258 0.70441
 N627 N 0.58852 0.32244 0.71309
 C628 C 0.60699 0.33313 0.70170
 C629 C 0.61673 0.32351 0.68061
 N630 N 0.60717 0.30353 0.67194
 N631 N 0.57916 0.27296 0.67477
 C632 C 0.56074 0.26223 0.68637
 C633 C 0.55133 0.27182 0.70761
 N634 N 0.56089 0.29185 0.71599
 H635 H 0.61403 0.34893 0.70916
 H636 H 0.55368 0.24632 0.67918
 C637 C 0.58856 0.79970 0.17989
 C638 C 0.57972 0.80768 0.20196
 N639 N 0.59049 0.82593 0.21271
 C640 C 0.60974 0.83651 0.20241
 C641 C 0.61880 0.82837 0.18030
 N642 N 0.60775 0.81012 0.16972
 N643 N 0.57799 0.78150 0.16903
 C644 C 0.55899 0.77074 0.17930
 C645 C 0.55010 0.77842 0.20159
 N646 N 0.56074 0.79686 0.21238
 H647 H 0.61789 0.85096 0.21148
 H648 H 0.55107 0.75616 0.17022
 C649 C 1.08911 0.30039 0.18709
 C650 C 1.07931 0.31117 0.20742
 N651 N 1.08819 0.33166 0.21486
 C652 C 1.10664 0.34186 0.20303
 C653 C 1.11686 0.33099 0.18277
 N654 N 1.10761 0.31049 0.17527
 N655 N 1.08029 0.27976 0.17981
 C656 C 1.06220 0.26933 0.19208
 C657 C 1.05254 0.27999 0.21265
 N658 N 1.06135 0.30075 0.21971
 H659 H 1.11334 0.35816 0.20963
 H660 H 1.05563 0.25281 0.18597
 C661 C 1.08273 0.79793 0.67907
 C662 C 1.07180 0.80805 0.69925
 N663 N 1.08054 0.82803 0.70811
 C664 C 1.09983 0.83833 0.69792
 C665 C 1.11125 0.82816 0.67781
 N666 N 1.10218 0.80814 0.66881
 N667 N 1.07395 0.77782 0.67037
 C668 C 1.05492 0.76731 0.68103
 C669 C 1.04413 0.77727 0.70149
 N670 N 1.05289 0.79754 0.70999
 H671 H 1.10620 0.85424 0.70573
 H672 H 1.04849 0.75118 0.67377
 C673 C 0.41061 0.68172 0.70085
 C674 C 0.42005 0.70100 0.68876
 N675 N 0.41008 0.70823 0.66780
 C676 C 0.39093 0.69712 0.65843
 C677 C 0.38125 0.67790 0.67062
 N678 N 0.39150 0.67066 0.69154
 N679 N 0.42039 0.67465 0.72196
 C680 C 0.43915 0.68610 0.73165
 C681 C 0.44855 0.70558 0.71970
 N682 N 0.43875 0.71246 0.69843
 H683 H 0.38326 0.70338 0.64177
 H684 H 0.44647 0.68017 0.74858
 C685 C 0.41681 0.19177 0.20538
 C686 C 0.42564 0.21180 0.19402
 N687 N 0.41551 0.21937 0.17335
 C688 C 0.39683 0.20797 0.16357
 C689 C 0.38759 0.18800 0.17506
 N690 N 0.39802 0.18039 0.19573
 N691 N 0.42698 0.18421 0.22606
 C692 C 0.44546 0.19582 0.23598
 C693 C 0.45418 0.21609 0.22481
 N694 N 0.44403 0.22353 0.20398
 H695 H 0.38921 0.21467 0.14708
 H696 H 0.45309 0.18937 0.25258
 C697 C -0.08229 0.69912 0.18662
 C698 C -0.07454 0.68774 0.20758
 N699 N -0.08604 0.66843 0.21522
 C700 C -0.10500 0.66000 0.20292
 C701 C -0.11303 0.67152 0.18198
 N702 N -0.10128 0.69083 0.17442
 N703 N -0.07083 0.71838 0.17887
 C704 C -0.05200 0.72691 0.19121
 C705 C -0.04428 0.71576 0.21240
 N706 N -0.05579 0.69633 0.22005
 H707 H -0.11376 0.64459 0.20962
 H708 H -0.04332 0.74241 0.18460
 C709 C -0.09327 0.20221 0.68405
 C710 C -0.08027 0.18982 0.70143
 N711 N -0.08592 0.16756 0.70637
 C712 C -0.10431 0.15713 0.69507
 C713 C -0.11802 0.16954 0.67812
 N714 N -0.11197 0.19186 0.67281
 N715 N -0.08740 0.22458 0.67931
 C716 C -0.06932 0.23512 0.69135
 C717 C -0.05670 0.22282 0.70919
 N718 N -0.06252 0.20038 0.71359
 H719 H -0.10839 0.13936 0.69967
 H720 H -0.06520 0.25301 0.68738
 C721 C 0.29881 0.40867 0.32252
 C722 C 0.31292 0.41927 0.30469
 N723 N 0.33472 0.41045 0.29947
 C724 C 0.34306 0.39135 0.31106
 C725 C 0.32890 0.38029 0.32870
 N726 N 0.30705 0.38940 0.33408
 N727 N 0.27691 0.41754 0.32755
 C728 C 0.26840 0.43637 0.31544
 C729 C 0.28236 0.44681 0.29726
 N730 N 0.30438 0.43793 0.29248
 H731 H 0.36051 0.38475 0.30627
 H732 H 0.25077 0.44287 0.31969
 C733 C 0.30544 -0.08775 0.81115
 C734 C 0.31652 -0.08069 0.78965
 N735 N 0.33629 -0.09202 0.78184
 C736 C 0.34537 -0.11024 0.79446
 C737 C 0.33403 -0.11762 0.81586
 N738 N 0.31437 -0.10596 0.82363
 N739 N 0.28565 -0.07659 0.81901
 C740 C 0.27624 -0.05874 0.80624
 C741 C 0.28704 -0.05176 0.78447
 N742 N 0.30707 -0.06290 0.77675
 H743 H 0.36108 -0.11898 0.78762
 H744 H 0.26031 -0.05029 0.81292
 C745 C 0.81389 0.41692 0.79626
 C746 C 0.79461 0.42721 0.80834
 N747 N 0.78753 0.41886 0.83000
 C748 C 0.79860 0.40036 0.84010
 C749 C 0.81767 0.38949 0.82790
 N750 N 0.82502 0.39832 0.80629
 N751 N 0.82056 0.42518 0.77430
 C752 C 0.80859 0.44310 0.76379
 C753 C 0.78900 0.45311 0.77577
 N754 N 0.78269 0.44493 0.79786
 H755 H 0.79223 0.39409 0.85736
 H756 H 0.81408 0.44918 0.74617
 C757 C 0.82798 -0.08665 0.29998
 C758 C 0.80623 -0.07993 0.31049
 N759 N 0.79805 -0.09142 0.33022
 C760 C 0.81053 -0.10948 0.33975
 C761 C 0.83211 -0.11647 0.32893
 N762 N 0.84029 -0.10470 0.30936
 N763 N 0.83618 -0.07546 0.28017
 C764 C 0.82346 -0.05798 0.27010
 C765 C 0.80138 -0.05143 0.28018
 N766 N 0.79336 -0.06249 0.30035
 H767 H 0.80345 -0.11848 0.35533
 H768 H 0.83042 -0.04951 0.25414
 C769 C 0.29240 0.58866 0.68859
 C770 C 0.30543 0.58004 0.70824
 N771 N 0.32679 0.58953 0.71366
 C772 C 0.33568 0.60738 0.70044
 C773 C 0.32259 0.61630 0.68086
 N774 N 0.30122 0.60657 0.67539
 N775 N 0.27096 0.57922 0.68328
 C776 C 0.26188 0.56164 0.69681
 C777 C 0.27478 0.55310 0.71667
 N778 N 0.29635 0.56254 0.72181
 H779 H 0.35274 0.61462 0.70535
 H780 H 0.24468 0.55455 0.69218
 C781 C 0.30060 1.09723 0.18325
 C782 C 0.31165 1.08923 0.20434
 N783 N 0.33122 1.10022 0.21261
 C784 C 0.34031 1.11891 0.20088
 C785 C 0.32934 1.12734 0.17969
 N786 N 0.30961 1.11608 0.17139
 N787 N 0.28092 1.08607 0.17513
 C788 C 0.27180 1.06744 0.18719
 C789 C 0.28275 1.05950 0.20849
 N790 N 0.30251 1.07073 0.21642
 H791 H 0.35598 1.12708 0.20825
 H792 H 0.25600 1.05908 0.18035
 C793 C 0.81817 0.58821 0.20137
 C794 C 0.79792 0.58030 0.18922
 N795 N 0.79110 0.59084 0.16849
 C796 C 0.80347 0.60911 0.15943
 C797 C 0.82365 0.61736 0.17174
 N798 N 0.83052 0.60646 0.19239
 N799 N 0.82480 0.57791 0.22230
 C800 C 0.81194 0.56016 0.23177
 C801 C 0.79145 0.55236 0.21980
 N802 N 0.78505 0.56261 0.19867
 H803 H 0.79738 0.61719 0.14294
 H804 H 0.81755 0.55241 0.24860
 C805 C 0.79169 1.08188 0.68644
 C806 C 0.80232 1.07317 0.70742
 N807 N 0.82295 1.08251 0.71538
 C808 C 0.83337 1.10041 0.70346
 C809 C 0.82248 1.10965 0.68267
 N810 N 0.80192 1.09992 0.67464
 N811 N 0.77103 1.07250 0.67851
 C812 C 0.76036 1.05492 0.69080
 C813 C 0.77072 1.04650 0.71213
 N814 N 0.79157 1.05583 0.71981
 H815 H 0.84974 1.10755 0.71046
 H816 H 0.74377 1.04792 0.68421
 C817 C 0.68230 0.59101 0.29094
 C818 C 0.70064 0.58072 0.30445
 N819 N 0.70590 0.58902 0.32649
 C820 C 0.69387 0.60735 0.33567
 C821 C 0.67568 0.61813 0.32216
 N822 N 0.67022 0.60952 0.30004
 N823 N 0.67728 0.58258 0.26876
 C824 C 0.68988 0.56448 0.25946
 C825 C 0.70849 0.55439 0.27289
 N826 N 0.71325 0.56282 0.29514
 H827 H 0.69869 0.61354 0.35332
 H828 H 0.68560 0.55826 0.24168
 C829 C 0.67697 1.08678 0.80006
 C830 C 0.69689 1.07688 0.81139
 N831 N 0.70517 1.08599 0.83203
 C832 C 0.69466 1.10478 0.84192
 C833 C 0.67487 1.11534 0.83055
 N834 N 0.66638 1.10585 0.80982
 N835 N 0.66891 1.07737 0.77926
 C836 C 0.68005 1.05870 0.76926
 C837 C 0.70031 1.04914 0.78047
 N838 N 0.70805 1.05854 0.80134
 H839 H 0.70205 1.11147 0.85842
 H840 H 0.67344 1.05172 0.75255
 C841 C 0.20031 0.58996 0.82257
 C842 C 0.18795 0.57777 0.80480
 N843 N 0.16592 0.58468 0.79814
 C844 C 0.15569 0.60360 0.80804
 C845 C 0.16813 0.61654 0.82542
 N846 N 0.19016 0.60911 0.83255
 N847 N 0.22264 0.58294 0.82876
 C848 C 0.23319 0.56453 0.81770
 C849 C 0.22091 0.55276 0.79947
 N850 N 0.19849 0.55968 0.79373
 H851 H 0.13808 0.60857 0.80196
 H852 H 0.25112 0.55951 0.82268
 C853 C 0.19103 1.09334 0.30090
 C854 C 0.21256 1.08606 0.31122
 N855 N 0.22079 1.09708 0.33106
 C856 C 0.20856 1.11515 0.34092
 C857 C 0.18711 1.12281 0.33033
 N858 N 0.17897 1.11145 0.31056
 N859 N 0.18266 1.08242 0.28114
 C860 C 0.19493 1.06462 0.27104
 C861 C 0.21678 1.05739 0.28100
 N862 N 0.22502 1.06834 0.30102
 H863 H 0.21574 1.12358 0.35663
 H864 H 0.18781 1.05642 0.25518
 C865 C 0.68227 0.41370 0.70468
 C866 C 0.69985 0.42463 0.69065
 N867 N 0.70495 0.41659 0.66838
 C868 C 0.69351 0.39788 0.65952
 C869 C 0.67618 0.38643 0.67361
 N870 N 0.67083 0.39480 0.69591
 N871 N 0.67741 0.42184 0.72707
 C872 C 0.68949 0.44025 0.73610
 C873 C 0.70742 0.45094 0.72216
 N874 N 0.71199 0.44281 0.69969
 H875 H 0.69820 0.39188 0.64171
 H876 H 0.68542 0.44621 0.75408
 C877 C 0.69089 -0.08866 0.20624
 C878 C 0.71076 -0.08049 0.19327
 N879 N 0.71624 -0.08985 0.17171
 C880 C 0.70292 -0.10715 0.16248
 C881 C 0.68303 -0.11577 0.17543
 N882 N 0.67748 -0.10611 0.19710
 N883 N 0.68554 -0.07911 0.22786
 C884 C 0.69916 -0.06187 0.23708
 C885 C 0.71919 -0.05381 0.22414
 N886 N 0.72439 -0.06340 0.20247
 H887 H 0.70809 -0.11412 0.14519
 H888 H 0.69446 -0.05464 0.25438
 C889 C 0.21061 0.41366 0.18715
 C890 C 0.19685 0.42653 0.20350
 N891 N 0.17355 0.42137 0.20678
 C892 C 0.16336 0.40361 0.19483
 C893 C 0.17712 0.39005 0.17895
 N894 N 0.20051 0.39561 0.17527
 N895 N 0.23403 0.41900 0.18410
 C896 C 0.24430 0.43641 0.19682
 C897 C 0.23060 0.44892 0.21364
 N898 N 0.20713 0.44364 0.21635
 H899 H 0.14473 0.39987 0.19813
 H900 H 0.26303 0.44012 0.19418
 C901 C 0.20244 -0.08646 0.68405
 C902 C 0.19221 -0.07707 0.70492
 N903 N 0.17136 -0.08576 0.71346
 C904 C 0.16038 -0.10361 0.70221
 C905 C 0.17085 -0.11337 0.68148
 N906 N 0.19161 -0.10431 0.67292
 N907 N 0.22331 -0.07793 0.67549
 C908 C 0.23459 -0.06049 0.68698
 C909 C 0.22462 -0.05121 0.70813
 N910 N 0.20352 -0.05970 0.71652
 H911 H 0.14386 -0.11024 0.70963
 H912 H 0.25131 -0.05414 0.67978
 C913 C 0.29407 0.31468 0.42099
 C914 C 0.29965 0.29124 0.42511
 N915 N 0.31432 0.28002 0.40971
 C916 C 0.32405 0.29120 0.39059
 C917 C 0.31910 0.31486 0.38666
 N918 N 0.30398 0.32604 0.40192
 N919 N 0.27919 0.32577 0.43641
 C920 C 0.26959 0.31447 0.45566
 C921 C 0.27529 0.29103 0.45986
 N922 N 0.29023 0.28002 0.44439
 H923 H 0.33588 0.28171 0.37876
 H924 H 0.25763 0.32370 0.46757
 C925 C 0.31782 0.80061 -0.08720
 C926 C 0.29568 0.81030 -0.08094
 N927 N 0.28771 0.82931 -0.09294
 C928 C 0.30077 0.83891 -0.11111
 C929 C 0.32272 0.82889 -0.11774
 N930 N 0.33069 0.81002 -0.10543
 N931 N 0.32588 0.78161 -0.07537
 C932 C 0.31268 0.77163 -0.05764
 C933 C 0.29025 0.78095 -0.05156
 N934 N 0.28233 0.80022 -0.06334
 H935 H 0.29382 0.85389 -0.12056
 H936 H 0.31955 0.75636 -0.04866
 C937 C 0.81039 0.29917 -0.08362
 C938 C 0.78944 0.30989 -0.07522
 N939 N 0.78151 0.32944 -0.08600
 C940 C 0.79348 0.33888 -0.10483
 C941 C 0.81452 0.32830 -0.11357
 N942 N 0.82250 0.30854 -0.10266
 N943 N 0.81814 0.27952 -0.07261
 C944 C 0.80586 0.27013 -0.05373
 C945 C 0.78475 0.28082 -0.04546
 N946 N 0.77717 0.30052 -0.05652
 H947 H 0.78639 0.35448 -0.11295
 H948 H 0.81243 0.25441 -0.04539
 C949 C 0.81020 0.81025 0.41255
 C950 C 0.82210 0.79008 0.42006
 N951 N 0.84332 0.78438 0.40988
 C952 C 0.85309 0.79784 0.39233
 C953 C 0.84102 0.81789 0.38450
 N954 N 0.81986 0.82362 0.39497
 N955 N 0.78891 0.81590 0.42258
 C956 C 0.77887 0.80219 0.43974
 C957 C 0.79061 0.78182 0.44714
 N958 N 0.81206 0.77632 0.43713
 H959 H 0.86992 0.79271 0.38437
 H960 H 0.76181 0.80711 0.44736
 C961 C 0.68054 0.29215 0.58869
 C962 C 0.70019 0.30280 0.57747
 N963 N 0.70760 0.32374 0.58519
 C964 C 0.69641 0.33449 0.60374
 C965 C 0.67691 0.32377 0.61535
 N966 N 0.66940 0.30279 0.60738
 N967 N 0.67320 0.27115 0.58094
 C968 C 0.68468 0.26026 0.56261
 C969 C 0.70459 0.27074 0.55154
 N970 N 0.71178 0.29187 0.55927
 H971 H 0.70293 0.35115 0.60951
 H972 H 0.67847 0.24346 0.55695
 C973 C 0.67930 0.79422 1.08883
 C974 C 0.69727 0.80571 1.07583
 N975 N 0.70336 0.82758 1.08167
 C976 C 0.69262 0.83847 1.10032
 C977 C 0.67512 0.82689 1.11401
 N978 N 0.66866 0.80502 1.10774
 N979 N 0.67348 0.77219 1.08282
 C980 C 0.68504 0.76109 1.06457
 C981 C 0.70346 0.77248 1.05203
 N982 N 0.70890 0.79458 1.05797
 H983 H 0.69813 0.85586 1.10469
 H984 H 0.68026 0.74348 1.06029
 C985 C 0.20569 0.32278 1.08895
 C986 C 0.19482 0.30255 1.08046
 N987 N 0.17489 0.29454 1.09154
 C988 C 0.16534 0.30574 1.11075
 C989 C 0.17621 0.32598 1.11948
 N990 N 0.19619 0.33401 1.10821
 N991 N 0.22571 0.33071 1.07795
 C992 C 0.23547 0.31929 1.05898
 C993 C 0.22479 0.29887 1.05051
 N994 N 0.20458 0.29106 1.06151
 H995 H 0.14944 0.29879 1.11914
 H996 H 0.25155 0.32602 1.05074
 C997 C 0.18253 0.80216 0.58780
 C998 C 0.20397 0.81288 0.58085
 N999 N 0.21159 0.83170 0.59292
 C1000 C 0.19887 0.84033 0.61166
 C1001 C 0.17737 0.82967 0.61895
 N1002 N 0.16970 0.81073 0.60670
 N1003 N 0.17503 0.78328 0.57558
 C1004 C 0.18801 0.77462 0.55689
 C1005 C 0.20962 0.78525 0.55002
 N1006 N 0.21697 0.80421 0.56228
 H1007 H 0.20567 0.85537 0.62083
 H1008 H 0.18159 0.75947 0.54763
 C1009 C 0.31148 0.70297 0.58514
 C1010 C 0.28944 0.69437 0.57743
 N1011 N 0.28022 0.67530 0.58846
 C1012 C 0.29198 0.66461 0.60690
 C1013 C 0.31395 0.67345 0.61478
 N1014 N 0.32307 0.69241 0.60350
 N1015 N 0.32081 0.72202 0.57449
 C1016 C 0.30904 0.73311 0.55655
 C1017 C 0.28675 0.72490 0.54882
 N1018 N 0.27749 0.70551 0.55942
 H1019 H 0.28412 0.64957 0.61545
 H1020 H 0.31703 0.74836 0.54855
 C1021 C 0.29701 0.19225 1.08590
 C1022 C 0.31012 0.21048 1.07550
 N1023 N 0.33196 0.21558 1.08401
 C1024 C 0.34130 0.20361 1.10271
 C1025 C 0.32812 0.18569 1.11392
 N1026 N 0.30618 0.18028 1.10503
 N1027 N 0.27509 0.18731 1.07699
 C1028 C 0.26571 0.19988 1.05844
 C1029 C 0.27870 0.21850 1.04849
 N1030 N 0.30068 0.22315 1.05730
 H1031 H 0.35879 0.20849 1.10898
 H1032 H 0.24815 0.19564 1.05184
 C1033 C 0.80091 0.68404 1.08628
 C1034 C 0.80905 0.70611 1.07966
 N1035 N 0.82800 0.71530 1.09138
 C1036 C 0.83897 0.70348 1.10956
 C1037 C 0.83047 0.68153 1.11644
 N1038 N 0.81168 0.67243 1.10443
 N1039 N 0.78201 0.67471 1.07486
 C1040 C 0.77063 0.68650 1.05716
 C1041 C 0.77836 0.70882 1.05059
 N1042 N 0.79757 0.71809 1.06199
 H1043 H 0.85383 0.71131 1.11877
 H1044 H 0.75550 0.67856 1.04851
 C1045 C 0.80943 0.19528 0.58924
 C1046 C 0.78830 0.18437 0.58200
 N1047 N 0.78087 0.16508 0.59370
 C1048 C 0.79351 0.15617 0.61236
 C1049 C 0.81468 0.16705 0.61988
 N1050 N 0.82213 0.18643 0.60800
 N1051 N 0.81677 0.21464 0.57749
 C1052 C 0.80392 0.22364 0.55894
 C1053 C 0.78261 0.21285 0.55175
 N1054 N 0.77540 0.19337 0.56353
 H1055 H 0.78694 0.14075 0.62128
 H1056 H 0.81021 0.23917 0.55003
 C1057 C 0.70683 0.68292 0.40779
 C1058 C 0.69663 0.70268 0.41821
 N1059 N 0.67537 0.71072 0.41005
 C1060 C 0.66390 0.69996 0.39179
 C1061 C 0.67418 0.68027 0.38114
 N1062 N 0.69541 0.67221 0.38955
 N1063 N 0.72817 0.67499 0.41579
 C1064 C 0.73988 0.68600 0.43372
 C1065 C 0.72980 0.70591 0.44410
 N1066 N 0.70831 0.71370 0.43608
 H1067 H 0.64704 0.70686 0.38555
 H1068 H 0.75691 0.67931 0.43970
 C1069 C 0.68212 0.20416 -0.08032
 C1070 C 0.70263 0.19357 -0.07081
 N1071 N 0.71065 0.17349 -0.08040
 C1072 C 0.69919 0.16358 -0.09919
 C1073 C 0.67880 0.17432 -0.10901
 N1074 N 0.67074 0.19438 -0.09918
 N1075 N 0.67412 0.22427 -0.07081
 C1076 C 0.68581 0.23442 -0.05235
 C1077 C 0.70661 0.22409 -0.04298
 N1078 N 0.71446 0.20377 -0.05244
 H1079 H 0.70616 0.14763 -0.10652
 H1080 H 0.67905 0.25059 -0.04531
 C1081 C 0.20076 0.68769 -0.09239
 C1082 C 0.19098 0.70892 -0.08523
 N1083 N 0.17129 0.71725 -0.09648
 C1084 C 0.16086 0.70531 -0.11459
 C1085 C 0.17051 0.68394 -0.12190
 N1086 N 0.19034 0.67568 -0.11051
 N1087 N 0.22049 0.67945 -0.08104
 C1088 C 0.23087 0.69149 -0.06288
 C1089 C 0.22108 0.71280 -0.05565
 N1090 N 0.20130 0.72091 -0.06713
 H1091 H 0.14517 0.71247 -0.12313
 H1092 H 0.24657 0.68449 -0.05420
 C1093 C 0.20100 0.18988 0.42179
 C1094 C 0.19112 0.21175 0.42669
 N1095 N 0.17401 0.22036 0.41193
 C1096 C 0.16642 0.20820 0.39253
 C1097 C 0.17656 0.18640 0.38737
 N1098 N 0.19363 0.17782 0.40230
 N1099 N 0.21799 0.18111 0.43648
 C1100 C 0.22586 0.19328 0.45564
 C1101 C 0.21654 0.21550 0.46041
 N1102 N 0.19916 0.22417 0.44579
 H1103 H 0.15279 0.21563 0.38111
 H1104 H 0.23963 0.18574 0.46682
 C1105 C 0.29646 0.41900 0.69356
 C1106 C 0.30895 0.42880 0.71278
 N1107 N 0.33030 0.41978 0.71940
 C1108 C 0.33967 0.40121 0.70783
 C1109 C 0.32702 0.39106 0.68881
 N1110 N 0.30572 0.40037 0.68207
 N1111 N 0.27498 0.42790 0.68713
 C1112 C 0.26528 0.44603 0.69922
 C1113 C 0.27759 0.45563 0.71876
 N1114 N 0.29924 0.44679 0.72493
 H1115 H 0.35664 0.39428 0.71368
 H1116 H 0.24801 0.45262 0.69386
 C1117 C 0.31541 0.92073 0.19871
 C1118 C 0.29362 0.92821 0.18910
 N1119 N 0.28364 0.91617 0.17083
 C1120 C 0.29439 0.89691 0.16180
 C1121 C 0.31613 0.88912 0.17157
 N1122 N 0.32610 0.90140 0.18983
 N1123 N 0.32537 0.93271 0.21703
 C1124 C 0.31443 0.95172 0.22635
 C1125 C 0.29235 0.95914 0.21706
 N1126 N 0.28256 0.94712 0.19851
 H1127 H 0.28590 0.88768 0.14731
 H1128 H 0.32270 0.96070 0.24114
 C1129 C 0.81616 0.41688 0.20565
 C1130 C 0.79677 0.42570 0.19257
 N1131 N 0.79037 0.41547 0.17169
 C1132 C 0.80235 0.39668 0.16332
 C1133 C 0.82168 0.38756 0.17645
 N1134 N 0.82815 0.39805 0.19734
 N1135 N 0.82237 0.42702 0.22667
 C1136 C 0.80996 0.44549 0.23531
 C1137 C 0.79035 0.45425 0.22237
 N1138 N 0.78435 0.44408 0.20120
 H1139 H 0.79669 0.38887 0.14666
 H1140 H 0.81522 0.45309 0.25222
 C1141 C 0.80602 0.91496 0.70410
 C1142 C 0.78499 0.92291 0.69315
 N1143 N 0.77735 0.91296 0.67261
 C1144 C 0.78967 0.89526 0.66250
 C1145 C 0.81063 0.88692 0.67348
 N1146 N 0.81835 0.89711 0.69409
 N1147 N 0.81356 0.92507 0.72469
 C1148 C 0.80095 0.94266 0.73488
 C1149 C 0.77971 0.95045 0.72406
 N1150 N 0.77236 0.94032 0.70337
 H1151 H 0.78294 0.88766 0.64614
 H1152 H 0.80733 0.95031 0.75136
 C1153 C 0.68114 0.58503 0.69891
 C1154 C 0.69983 0.57439 0.68619
 N1155 N 0.70581 0.58213 0.66395
 C1156 C 0.69413 0.60026 0.65383
 C1157 C 0.67559 0.61131 0.66656
 N1158 N 0.66941 0.60328 0.68884
 N1159 N 0.67547 0.57728 0.72133
 C1160 C 0.68779 0.55950 0.73165
 C1161 C 0.70673 0.54906 0.71898
 N1162 N 0.71212 0.55679 0.69648
 H1163 H 0.69947 0.60607 0.63607
 H1164 H 0.68306 0.55381 0.74963
 C1165 C 0.70744 0.07999 0.18695
 C1166 C 0.69914 0.07283 0.20971
 N1167 N 0.68118 0.08459 0.22050
 C1168 C 0.67122 0.10333 0.20967
 C1169 C 0.67976 0.11087 0.18706
 N1170 N 0.69768 0.09889 0.17619
 N1171 N 0.72543 0.06819 0.17619
 C1172 C 0.73571 0.04973 0.18729
 C1173 C 0.72782 0.04286 0.21035
 N1174 N 0.70956 0.05456 0.22092
 H1175 H 0.65701 0.11243 0.21889
 H1176 H 0.75023 0.04083 0.17836
 C1177 C 0.21196 0.58175 0.18650
 C1178 C 0.19950 0.57306 0.20653
 N1179 N 0.17819 0.58251 0.21272
 C1180 C 0.16877 0.60038 0.19988
 C1181 C 0.18122 0.60933 0.17984
 N1182 N 0.20258 0.59965 0.17362
 N1183 N 0.23338 0.57235 0.18049
 C1184 C 0.24297 0.55472 0.19367
 C1185 C 0.23058 0.54606 0.21386
 N1186 N 0.20905 0.55551 0.21969
 H1187 H 0.15178 0.60756 0.20539
 H1188 H 0.26012 0.54767 0.18850
 C1189 C 0.20271 0.08257 0.68581
 C1190 C 0.19252 0.07189 0.70607
 N1191 N 0.17165 0.08002 0.71519
 C1192 C 0.16056 0.09859 0.70509
 C1193 C 0.17093 0.10963 0.68503
 N1194 N 0.19174 0.10118 0.67582
 N1195 N 0.22371 0.07453 0.67685
 C1196 C 0.23515 0.05636 0.68743
 C1197 C 0.22516 0.04590 0.70800
 N1198 N 0.20398 0.05393 0.71668
 H1199 H 0.14406 0.10484 0.71289
 H1200 H 0.25199 0.05044 0.68011
 C1201 C 0.29959 0.58661 0.31862
 C1202 C 0.31268 0.57692 0.29958
 N1203 N 0.33319 0.58714 0.29219
 C1204 C 0.34118 0.60673 0.30282
 C1205 C 0.32803 0.61678 0.32175
 N1206 N 0.30751 0.60629 0.32926
 N1207 N 0.27890 0.57645 0.32576
 C1208 C 0.27060 0.55720 0.31458
 C1209 C 0.28351 0.54763 0.29524
 N1210 N 0.30436 0.55779 0.28835
 H1211 H 0.35757 0.61446 0.29636
 H1212 H 0.25390 0.54969 0.32049
 C1213 C 0.31645 0.08311 0.79717
 C1214 C 0.29435 0.07553 0.80615
 N1215 N 0.28383 0.08707 0.82456
 C1216 C 0.29430 0.10601 0.83425
 C1217 C 0.31623 0.11391 0.82495
 N1218 N 0.32680 0.10210 0.80668
 N1219 N 0.32693 0.07171 0.77868
 C1220 C 0.31618 0.05320 0.76852
 C1221 C 0.29378 0.04582 0.77711
 N1222 N 0.28348 0.05715 0.79589
 H1223 H 0.28537 0.11497 0.84878
 H1224 H 0.32487 0.04461 0.75360
 C1225 C 0.81503 0.58675 0.79018
 C1226 C 0.80083 0.57267 0.80511
 N1227 N 0.79899 0.57736 0.82886
 C1228 C 0.81020 0.59587 0.83838
 C1229 C 0.82363 0.61075 0.82344
 N1230 N 0.82602 0.60561 0.79961
 N1231 N 0.81667 0.58185 0.76634
 C1232 C 0.80448 0.56376 0.75675
 C1233 C 0.78961 0.55019 0.77162
 N1234 N 0.78839 0.55499 0.79550
 H1235 H 0.80804 0.59928 0.85739
 H1236 H 0.80585 0.56043 0.73766
 C1237 C 0.82140 0.08386 0.29576
 C1238 C 0.80119 0.07457 0.30711
 N1239 N 0.79270 0.08437 0.32756
 C1240 C 0.80344 0.10319 0.33719
 C1241 C 0.82363 0.11274 0.32582
 N1242 N 0.83214 0.10270 0.30533
 N1243 N 0.82971 0.07411 0.27516
 C1244 C 0.81862 0.05551 0.26532
 C1245 C 0.79824 0.04627 0.27658
 N1246 N 0.79013 0.05610 0.29729
 H1247 H 0.79616 0.11067 0.35345
 H1248 H 0.82551 0.04820 0.24880
 C1249 C 0.68665 0.41892 0.29729
 C1250 C 0.70571 0.42916 0.30946
 N1251 N 0.71296 0.42031 0.33088
 C1252 C 0.70212 0.40146 0.34065
 C1253 C 0.68320 0.39092 0.32837
 N1254 N 0.67587 0.40007 0.30699
 N1255 N 0.67965 0.42762 0.27569
 C1256 C 0.69105 0.44600 0.26555
 C1257 C 0.71041 0.45608 0.27755
 N1258 N 0.71713 0.44741 0.29932
 H1259 H 0.70841 0.39467 0.35767
 H1260 H 0.68531 0.45241 0.24818
 C1261 C 0.69165 0.91468 0.81897
 C1262 C 0.68143 0.92145 0.79701
 N1263 N 0.66267 0.90948 0.78820
 C1264 C 0.65375 0.89088 0.80026
 C1265 C 0.66421 0.88378 0.82208
 N1266 N 0.68290 0.89602 0.83092
 N1267 N 0.71050 0.92657 0.82773
 C1268 C 0.71979 0.94482 0.81538
 C1269 C 0.70989 0.95139 0.79313
 N1270 N 0.69081 0.93954 0.78457
 H1271 H 0.63889 0.88158 0.79267
 H1272 H 0.73500 0.95381 0.82268
 C1273 C 0.20056 0.41631 0.82073
 C1274 C 0.18805 0.42864 0.80298
 N1275 N 0.16606 0.42162 0.79631
 C1276 C 0.15600 0.40256 0.80635
 C1277 C 0.16855 0.38973 0.82383
 N1278 N 0.19058 0.39708 0.83076
 N1279 N 0.22275 0.42343 0.82707
 C1280 C 0.23303 0.44217 0.81625
 C1281 C 0.22062 0.45422 0.79812
 N1282 N 0.19835 0.44711 0.79214
 H1283 H 0.13846 0.39737 0.80046
 H1284 H 0.25084 0.44727 0.82138
 C1285 C 0.20890 0.92049 0.31246
 C1286 C 0.19700 0.93038 0.29273
 N1287 N 0.17636 0.92098 0.28502
 C1288 C 0.16709 0.90195 0.29591
 C1289 C 0.17904 0.89147 0.31546
 N1290 N 0.19975 0.90119 0.32339
 N1291 N 0.22965 0.93014 0.31998
 C1292 C 0.23907 0.94900 0.30853
 C1293 C 0.22734 0.95864 0.28843
 N1294 N 0.20649 0.94899 0.28120
 H1295 H 0.15060 0.89497 0.28907
 H1296 H 0.25574 0.95611 0.31477
 C1297 C 0.41157 0.29589 0.68707
 C1298 C 0.42372 0.30638 0.70616
 N1299 N 0.41659 0.32744 0.71397
 C1300 C 0.39773 0.33847 0.70377
 C1301 C 0.38510 0.32794 0.68488
 N1302 N 0.39250 0.30682 0.67690
 N1303 N 0.41880 0.27477 0.67934
 C1304 C 0.43746 0.26360 0.68994
 C1305 C 0.44943 0.27391 0.70936
 N1306 N 0.44221 0.29518 0.71688
 H1307 H 0.39253 0.35522 0.71064
 H1308 H 0.44263 0.24669 0.68348
 C1309 C 0.41032 0.80154 0.17837
 C1310 C 0.41911 0.80982 0.20026
 N1311 N 0.40859 0.82859 0.21051
 C1312 C 0.38956 0.83931 0.19993
 C1313 C 0.38052 0.83071 0.17817
 N1314 N 0.39134 0.81205 0.16801
 N1315 N 0.42056 0.78283 0.16798
 C1316 C 0.43915 0.77177 0.17857
 C1317 C 0.44791 0.77962 0.20075
 N1318 N 0.43767 0.79864 0.21106
 H1319 H 0.38140 0.85407 0.20860
 H1320 H 0.44677 0.75676 0.16984
 C1321 C 0.91449 0.29960 0.19008
 C1322 C 0.92378 0.31033 0.21054
 N1323 N 0.91395 0.33043 0.21840
 C1324 C 0.89513 0.34026 0.20675
 C1325 C 0.88567 0.32943 0.18633
 N1326 N 0.89573 0.30935 0.17853
 N1327 N 0.92415 0.27944 0.18226
 C1328 C 0.94268 0.26939 0.19408
 C1329 C 0.95195 0.27996 0.21473
 N1330 N 0.94225 0.30028 0.22240
 H1331 H 0.88759 0.35622 0.21348
 H1332 H 0.94993 0.25324 0.18751
 C1333 C 0.90448 0.79876 0.67744
 C1334 C 0.91402 0.80822 0.69843
 N1335 N 0.90441 0.82782 0.70772
 C1336 C 0.88551 0.83840 0.69701
 C1337 C 0.87567 0.82890 0.67607
 N1338 N 0.88555 0.80926 0.66677
 N1339 N 0.91404 0.77900 0.66833
 C1340 C 0.93266 0.76818 0.67940
 C1341 C 0.94208 0.77751 0.70062
 N1342 N 0.93247 0.79740 0.70949
 H1343 H 0.87817 0.85394 0.70493
 H1344 H 0.93980 0.75237 0.67189
 C1345 C 0.59345 0.30184 0.31638
 C1346 C 0.58575 0.31169 0.29456
 N1347 N 0.59680 0.33085 0.28587
 C1348 C 0.61520 0.34058 0.29799
 C1349 C 0.62303 0.33064 0.31980
 N1350 N 0.61185 0.31146 0.32842
 N1351 N 0.58249 0.28274 0.32517
 C1352 C 0.56422 0.27290 0.31309
 C1353 C 0.55650 0.28254 0.29109
 N1354 N 0.56749 0.30182 0.28236
 H1355 H 0.62368 0.35582 0.29054
 H1356 H 0.55592 0.25759 0.32061
 C1357 C 0.58434 0.80949 0.79595
 C1358 C 0.57553 0.79006 0.80831
 N1359 N 0.58433 0.78458 0.83032
 C1360 C 0.60168 0.79758 0.84051
 C1361 C 0.61068 0.81701 0.82812
 N1362 N 0.60165 0.82249 0.80610
 N1363 N 0.57569 0.81487 0.77385
 C1364 C 0.55861 0.80165 0.76349
 C1365 C 0.54975 0.78212 0.77580
 N1366 N 0.55846 0.77687 0.79801
 H1367 H 0.60843 0.79270 0.85804
 H1368 H 0.55205 0.80637 0.74584
 C1369 C 0.08033 0.29858 0.81453
 C1370 C 0.06996 0.31032 0.79500
 N1371 N 0.07868 0.33116 0.78805
 C1372 C 0.09743 0.34081 0.79963
 C1373 C 0.10813 0.32906 0.81909
 N1374 N 0.09917 0.30816 0.82610
 N1375 N 0.07159 0.27764 0.82133
 C1376 C 0.05306 0.26785 0.80938
 C1377 C 0.04282 0.27947 0.78961
 N1378 N 0.05159 0.30052 0.78302
 H1379 H 0.10399 0.35742 0.79350
 H1380 H 0.04662 0.25106 0.81508
 C1381 C 0.09472 0.79627 0.30983
 C1382 C 0.08483 0.80537 0.28868
 N1383 N 0.09309 0.82565 0.27954
 C1384 C 0.11098 0.83727 0.29056
 C1385 C 0.12115 0.82812 0.31166
 N1386 N 0.11264 0.80780 0.32079
 N1387 N 0.08640 0.77596 0.31893
 C1388 C 0.06861 0.76426 0.30774
 C1389 C 0.05880 0.77327 0.28642
 N1390 N 0.06721 0.79368 0.27751
 H1391 H 0.11729 0.85334 0.28279
 H1392 H 0.06234 0.74809 0.31533
 C1393 C 0.58597 0.67701 0.70010
 C1394 C 0.57416 0.69445 0.68707
 N1395 N 0.58107 0.69948 0.66429
 C1396 C 0.59956 0.68810 0.65393
 C1397 C 0.61194 0.67094 0.66699
 N1398 N 0.60467 0.66563 0.68982
 N1399 N 0.57894 0.67227 0.72305
 C1400 C 0.56081 0.68435 0.73355
 C1401 C 0.54932 0.70212 0.72057
 N1402 N 0.55631 0.70655 0.69757
 H1403 H 0.60471 0.69272 0.63575
 H1404 H 0.55572 0.68040 0.75192
 C1405 C 0.59159 0.20173 0.19044
 C1406 C 0.58322 0.19256 0.21239
 N1407 N 0.59368 0.17347 0.22184
 C1408 C 0.61221 0.16312 0.21042
 C1409 C 0.62085 0.17235 0.18852
 N1410 N 0.61023 0.19149 0.17903
 N1411 N 0.58110 0.22088 0.18105
 C1412 C 0.56275 0.23138 0.19272
 C1413 C 0.55457 0.22240 0.21488
 N1414 N 0.56501 0.20309 0.22411
 H1415 H 0.62021 0.14795 0.21857
 H1416 H 0.55484 0.24675 0.18487
 C1417 C 0.09233 0.67664 0.20008
 C1418 C 0.08526 0.69762 0.18934
 N1419 N 0.09675 0.70527 0.16931
 C1420 C 0.11512 0.69300 0.15966
 C1421 C 0.12255 0.67218 0.17066
 N1422 N 0.11080 0.66450 0.19061
 N1423 N 0.08093 0.66895 0.22009
 C1424 C 0.06290 0.68138 0.23005
 C1425 C 0.05601 0.70266 0.21966
 N1426 N 0.06736 0.71022 0.19939
 H1427 H 0.12406 0.69968 0.14379
 H1428 H 0.05431 0.67483 0.24617
 C1429 C 0.08277 0.20228 0.68856
 C1430 C 0.07102 0.19074 0.70744
 N1431 N 0.07876 0.16960 0.71464
 C1432 C 0.09789 0.15945 0.70398
 C1433 C 0.11007 0.17097 0.68521
 N1434 N 0.10206 0.19219 0.67787
 N1435 N 0.07491 0.22354 0.68156
 C1436 C 0.05597 0.23382 0.69272
 C1437 C 0.04439 0.22236 0.71189
 N1438 N 0.05229 0.20101 0.71863
 H1439 H 0.10360 0.14260 0.71032
 H1440 H 0.05025 0.25084 0.68691
 C1441 C 0.41110 0.68543 0.29042
 C1442 C 0.41968 0.70621 0.29992
 N1443 N 0.40965 0.71485 0.32027
 C1444 C 0.39134 0.70370 0.33151
 C1445 C 0.38259 0.68290 0.32197
 N1446 N 0.39285 0.67431 0.30162
 N1447 N 0.42095 0.67684 0.26999
 C1448 C 0.43897 0.68815 0.25850
 C1449 C 0.44760 0.70907 0.26785
 N1450 N 0.43769 0.71755 0.28846
 H1451 H 0.38365 0.71108 0.34764
 H1452 H 0.44639 0.68089 0.24219
 C1453 C 0.41000 0.19961 0.81279
 C1454 C 0.41864 0.18752 0.79267
 N1455 N 0.40768 0.16781 0.78582
 C1456 C 0.38841 0.15963 0.79803
 C1457 C 0.37936 0.17177 0.81807
 N1458 N 0.39054 0.19156 0.82499
 N1459 N 0.42108 0.21934 0.81959
 C1460 C 0.44023 0.22761 0.80712
 C1461 C 0.44873 0.21573 0.78670
 N1462 N 0.43763 0.19586 0.78008
 H1463 H 0.38012 0.14388 0.79189
 H1464 H 0.44851 0.24350 0.81292
 C1465 C 0.90622 0.68338 0.79080
 C1466 C 0.91225 0.70531 0.79962
 N1467 N 0.90005 0.71403 0.81867
 C1468 C 0.88213 0.70184 0.82930
 C1469 C 0.87597 0.67984 0.82050
 N1470 N 0.88828 0.67120 0.80137
 N1471 N 0.91839 0.67461 0.77180
 C1472 C 0.93628 0.68677 0.76113
 C1473 C 0.94238 0.70883 0.76978
 N1474 N 0.93013 0.71756 0.78894
 H1475 H 0.87278 0.70932 0.84447
 H1476 H 0.94557 0.67925 0.74595
 C1477 C 0.91538 0.20093 0.31608
 C1478 C 0.92513 0.19015 0.29574
 N1479 N 0.91569 0.17001 0.28786
 C1480 C 0.89678 0.16019 0.29935
 C1481 C 0.88677 0.17107 0.31961
 N1482 N 0.89646 0.19120 0.32750
 N1483 N 0.92469 0.22118 0.32384
 C1484 C 0.94326 0.23127 0.31203
 C1485 C 0.95291 0.22065 0.29145
 N1486 N 0.94359 0.20024 0.28389
 H1487 H 0.88955 0.14418 0.29256
 H1488 H 0.95019 0.24752 0.31850
 C1489 C 0.31155 0.30242 0.59818
 C1490 C 0.28961 0.31238 0.59154
 N1491 N 0.28167 0.33138 0.60335
 C1492 C 0.29459 0.34083 0.62146
 C1493 C 0.31654 0.33080 0.62829
 N1494 N 0.32443 0.31176 0.61634
 N1495 N 0.31960 0.28348 0.58642
 C1496 C 0.30672 0.27393 0.56843
 C1497 C 0.28455 0.28363 0.56178
 N1498 N 0.27656 0.30278 0.57355
 H1499 H 0.28765 0.35596 0.63049
 H1500 H 0.31374 0.25876 0.55953
 C1501 C 0.29168 0.81664 0.08528
 C1502 C 0.30346 0.79630 0.07818
 N1503 N 0.32360 0.78964 0.08969
 C1504 C 0.33253 0.80231 0.10805
 C1505 C 0.32079 0.82270 0.11545
 N1506 N 0.30054 0.82936 0.10375
 N1507 N 0.27150 0.82322 0.07366
 C1508 C 0.26257 0.81040 0.05533
 C1509 C 0.27427 0.78991 0.04824
 N1510 N 0.29452 0.78344 0.05995
 H1511 H 0.34863 0.79638 0.11682
 H1512 H 0.24641 0.81610 0.04649
 C1513 C 0.79840 0.31802 0.09127
 C1514 C 0.80760 0.29625 0.08494
 N1515 N 0.82675 0.28768 0.09694
 C1516 C 0.83699 0.29981 0.11508
 C1517 C 0.82752 0.32148 0.12167
 N1518 N 0.80846 0.33001 0.10944
 N1519 N 0.77929 0.32669 0.07944
 C1520 C 0.76875 0.31454 0.06164
 C1521 C 0.77760 0.29252 0.05540
 N1522 N 0.79698 0.28393 0.06721
 H1523 H 0.85213 0.29244 0.12442
 H1524 H 0.75342 0.32195 0.05267
 C1525 C 0.81644 0.79608 0.58436
 C1526 C 0.79504 0.80418 0.57433
 N1527 N 0.78449 0.82341 0.58331
 C1528 C 0.79426 0.83488 0.60206
 C1529 C 0.81553 0.82665 0.61246
 N1530 N 0.82616 0.80742 0.60322
 N1531 N 0.82694 0.77681 0.57531
 C1532 C 0.81691 0.76517 0.55675
 C1533 C 0.79528 0.77309 0.54690
 N1534 N 0.78495 0.79251 0.55596
 H1535 H 0.78530 0.85009 0.60892
 H1536 H 0.82560 0.74978 0.54997
 C1537 C 0.31441 0.70906 0.41060
 C1538 C 0.29359 0.69893 0.41981
 N1539 N 0.28556 0.67886 0.41025
 C1540 C 0.29736 0.66846 0.39179
 C1541 C 0.31816 0.67863 0.38227
 N1542 N 0.32616 0.69875 0.39206
 N1543 N 0.32241 0.72914 0.42020
 C1544 C 0.31045 0.73963 0.43856
 C1545 C 0.28942 0.72965 0.44771
 N1546 N 0.28159 0.70944 0.43802
 H1547 H 0.29043 0.65253 0.38452
 H1548 H 0.31719 0.75567 0.44575
 C1549 C 0.31394 0.20854 0.90963
 C1550 C 0.29114 0.20126 0.91700
 N1551 N 0.28055 0.18348 0.90553
 C1552 C 0.29170 0.17253 0.88710
 C1553 C 0.31464 0.17962 0.87960
 N1554 N 0.32520 0.19762 0.89110
 N1555 N 0.32447 0.22635 0.92124
 C1556 C 0.31325 0.23720 0.93979
 C1557 C 0.29035 0.22996 0.94719
 N1558 N 0.27989 0.21208 0.93550
 H1559 H 0.28262 0.15840 0.87840
 H1560 H 0.32213 0.25139 0.94861
 C1561 C 0.80884 0.70036 0.91225
 C1562 C 0.78929 0.68821 0.92182
 N1563 N 0.78308 0.66759 0.91230
 C1564 C 0.79545 0.65856 0.89352
 C1565 C 0.81488 0.67079 0.88361
 N1566 N 0.82113 0.69145 0.89334
 N1567 N 0.81501 0.72099 0.92185
 C1568 C 0.80242 0.73010 0.94051
 C1569 C 0.78263 0.71808 0.94991
 N1570 N 0.77663 0.69735 0.94029
 H1571 H 0.78992 0.64212 0.88626
 H1572 H 0.80766 0.74666 0.94771
 C1573 C 0.79628 0.17966 0.41330
 C1574 C 0.80542 0.20101 0.42081
 N1575 N 0.82488 0.20990 0.40952
 C1576 C 0.83553 0.19849 0.39099
 C1577 C 0.82623 0.17720 0.38324
 N1578 N 0.80679 0.16834 0.39474
 N1579 N 0.77686 0.17069 0.42449
 C1580 C 0.76602 0.18214 0.44280
 C1581 C 0.77488 0.20369 0.45028
 N1582 N 0.79451 0.21258 0.43905
 H1583 H 0.85095 0.20610 0.38229
 H1584 H 0.75046 0.17453 0.45126
 C1585 C 0.68250 0.29413 0.41262
 C1586 C 0.70174 0.30413 0.42471
 N1587 N 0.70983 0.32521 0.41785
 C1588 C 0.69970 0.33680 0.39921
 C1589 C 0.68062 0.32682 0.38663
 N1590 N 0.67237 0.30564 0.39378
 N1591 N 0.67463 0.27289 0.41969
 C1592 C 0.68528 0.26118 0.43817
 C1593 C 0.70485 0.27111 0.44999
 N1594 N 0.71241 0.29243 0.44289
 H1595 H 0.70674 0.35355 0.39416
 H1596 H 0.67883 0.24423 0.44328
 C1597 C 0.67836 0.79692 0.91629
 C1598 C 0.69932 0.80723 0.92473
 N1599 N 0.70692 0.82735 0.91458
 C1600 C 0.69462 0.83749 0.89623
 C1601 C 0.67383 0.82692 0.88752
 N1602 N 0.66624 0.80692 0.89797
 N1603 N 0.67073 0.77676 0.92612
 C1604 C 0.68322 0.76623 0.94394
 C1605 C 0.70446 0.77623 0.95230
 N1606 N 0.71195 0.79666 0.94252
 H1607 H 0.70124 0.85337 0.88830
 H1608 H 0.67669 0.75007 0.95132
 C1609 C 0.20177 0.32158 0.90985
 C1610 C 0.19176 0.30113 0.91898
 N1611 N 0.17155 0.29266 0.90912
 C1612 C 0.16079 0.30370 0.89043
 C1613 C 0.17068 0.32423 0.88109
 N1614 N 0.19102 0.33269 0.89114
 N1615 N 0.22214 0.32987 0.91975
 C1616 C 0.23297 0.31856 0.93835
 C1617 C 0.22297 0.29801 0.94748
 N1618 N 0.20253 0.28991 0.93746
 H1619 H 0.14469 0.29644 0.88299
 H1620 H 0.24924 0.32546 0.94581
 C1621 C 0.20581 0.82415 0.40919
 C1622 C 0.19645 0.80233 0.41527
 N1623 N 0.17887 0.79321 0.40177
 C1624 C 0.17017 0.80481 0.38242
 C1625 C 0.17947 0.82670 0.37601
 N1626 N 0.19718 0.83587 0.38969
 N1627 N 0.22349 0.83312 0.42283
 C1628 C 0.23231 0.82124 0.44207
 C1629 C 0.22313 0.79923 0.44801
 N1630 N 0.20531 0.79040 0.43438
 H1631 H 0.15614 0.79683 0.37212
 H1632 H 0.24656 0.82880 0.45243
 C1633 C 0.70781 0.67674 0.57978
 C1634 C 0.69740 0.69661 0.56968
 N1635 N 0.67594 0.70414 0.57777
 C1636 C 0.66437 0.69279 0.59575
 C1637 C 0.67482 0.67302 0.60621
 N1638 N 0.69632 0.66541 0.59785
 N1639 N 0.72943 0.66942 0.57167
 C1640 C 0.74118 0.68122 0.55397
 C1641 C 0.73083 0.70129 0.54409
 N1642 N 0.70912 0.70835 0.55222
 H1643 H 0.64735 0.69936 0.60196
 H1644 H 0.75845 0.67515 0.54792
 C1645 C 0.68485 0.20325 0.09689
 C1646 C 0.70509 0.19312 0.08639
 N1647 N 0.71346 0.17270 0.09506
 C1648 C 0.70261 0.16192 0.11392
 C1649 C 0.68242 0.17204 0.12477
 N1650 N 0.67400 0.19253 0.11584
 N1651 N 0.67661 0.22376 0.08814
 C1652 C 0.68777 0.23466 0.06943
 C1653 C 0.70822 0.22463 0.05903
 N1654 N 0.71626 0.20401 0.06785
 H1655 H 0.70985 0.14570 0.12045
 H1656 H 0.68090 0.25104 0.06293
 C1657 C 0.18821 0.69447 0.08232
 C1658 C 0.21041 0.68624 0.07445
 N1659 N 0.22040 0.66757 0.08551
 C1660 C 0.20924 0.65688 0.10432
 C1661 C 0.18718 0.66539 0.11252
 N1662 N 0.17722 0.68395 0.10112
 N1663 N 0.17826 0.71322 0.07145
 C1664 C 0.18966 0.72433 0.05312
 C1665 C 0.21213 0.71639 0.04543
 N1666 N 0.22187 0.69740 0.05628
 H1667 H 0.21771 0.64221 0.11298
 H1668 H 0.18143 0.73937 0.04494
 C1669 C 0.18108 0.20266 0.59815
 C1670 C 0.20258 0.19291 0.58987
 N1671 N 0.21071 0.17303 0.59995
 C1672 C 0.19839 0.16246 0.61797
 C1673 C 0.17688 0.17223 0.62646
 N1674 N 0.16875 0.19217 0.61623
 N1675 N 0.17293 0.22254 0.58805
 C1676 C 0.18532 0.23316 0.57011
 C1677 C 0.20697 0.22354 0.56185
 N1678 N 0.21505 0.20355 0.57199
 H1679 H 0.20547 0.14664 0.62564
 H1680 H 0.17835 0.24905 0.56248
   
