data_POSCAR
  _audit_creation_date              2014-09-24
  _audit_creation_method            'ToBaCCo'
  _symmetry_space_group_name_H-M    'P1'
  _symmetry_Int_Tables_number       1
  _symmetry_cell_setting            triclinic
  loop_
  _symmetry_equiv_pos_as_xyz
 x,y,z
_cell_length_a 31.9001
_cell_length_b 33.3793
_cell_length_c 38.3966
_cell_angle_alpha 89.886200
_cell_angle_beta 89.956300
_cell_angle_gamma 90.107200
loop_
  _atom_site_label
  _atom_site_type_symbol
  _atom_site_fract_x
  _atom_site_fract_y
  _atom_site_fract_z
Zr1 Zr 0.25401 0.25202 0.31024
 O2 O 0.28603 0.28309 0.35026
 O3 O 0.21417 0.21510 0.33968
 O4 O 0.21328 0.29004 0.33815
 O5 O 0.32666 0.17660 0.29763
 O6 O 0.18295 0.32913 0.29629
 O7 O 0.29412 0.21432 0.33894
 O8 O 0.17185 0.18762 0.29853
 O9 O 0.19907 0.25654 0.28076
 O10 O 0.25059 0.19973 0.28051
 O11 O 0.26073 0.30483 0.28081
 O12 O 0.31028 0.25012 0.28129
 Zr13 Zr 0.25724 0.25435 0.18878
 Zr14 Zr 0.20729 0.30730 0.24924
 Zr15 Zr 0.30429 0.19914 0.24971
 Zr16 Zr 0.19723 0.20526 0.25003
 O17 O 0.37060 0.19973 0.24912
 O18 O 0.13262 0.22005 0.24940
 O19 O 0.25065 0.20104 0.21802
 O20 O 0.20171 0.25605 0.21828
 O21 O 0.26097 0.30703 0.21811
 O22 O 0.31186 0.25004 0.21866
 C23 C 0.18317 0.19298 0.33044
 C24 C 0.31919 0.18614 0.32959
 C25 C 0.18845 0.31813 0.32803
 O26 O 0.14109 0.30739 0.24587
 O27 O 0.18931 0.33332 0.20156
 O28 O 0.22000 0.29491 0.15996
 C29 C 0.19620 0.32400 0.16951
 O30 O 0.34421 0.31942 0.29607
 Zr31 Zr 0.31414 0.30120 0.24932
 O32 O 0.29770 0.29100 0.15972
 O33 O 0.21804 0.36977 0.25219
 O34 O 0.30937 0.36449 0.25200
 O35 O 0.37932 0.28947 0.24562
 O36 O 0.33448 0.32501 0.20132
 C37 C 0.32438 0.31752 0.16958
 O38 O 0.22153 0.22651 0.14918
 O39 O 0.29438 0.13643 0.25042
 O40 O 0.29409 0.21317 0.16028
 O41 O 0.32324 0.17357 0.20220
 O42 O 0.19959 0.14182 0.25204
 O43 O 0.17190 0.18057 0.20357
 C44 C 0.31695 0.18337 0.17016
 H45 H 0.24928 0.17495 0.29467
 H46 H 0.17666 0.25740 0.20313
 H47 H 0.33755 0.24815 0.20428
 H48 H 0.26281 0.32853 0.29618
 H49 H 0.11678 0.19556 0.25584
 H50 H 0.13210 0.33578 0.24682
 H51 H 0.19027 0.38291 0.25062
 H52 H 0.33722 0.37578 0.24601
 H53 H 0.17093 0.13214 0.25748
 H54 H 0.32241 0.12374 0.25154
 H55 H 0.37972 0.17138 0.24844
 H56 H 0.39345 0.31521 0.24021
 H57 H 0.14640 0.16489 0.20921
 H58 H 0.23278 0.23603 0.12651
 H59 H 0.27478 0.27315 0.37280
 H60 H 0.36528 0.34036 0.29071
 Zr61 Zr 0.75571 0.75630 0.30988
 O62 O 0.72614 0.72422 0.35076
 O63 O 0.79356 0.79666 0.33789
 O64 O 0.79821 0.72002 0.33816
 O65 O 0.67327 0.82187 0.29662
 O66 O 0.83250 0.68434 0.29626
 O67 O 0.71294 0.79155 0.33853
 O68 O 0.83105 0.82883 0.29552
 O69 O 0.81058 0.75603 0.27989
 O70 O 0.75350 0.80801 0.27909
 O71 O 0.75352 0.70280 0.28097
 O72 O 0.69927 0.75258 0.28117
 Zr73 Zr 0.75174 0.75155 0.18823
 Zr74 Zr 0.80677 0.70424 0.24907
 Zr75 Zr 0.69963 0.80332 0.24875
 Zr76 Zr 0.80701 0.80676 0.24814
 O77 O 0.63357 0.79763 0.24724
 O78 O 0.87278 0.79768 0.24743
 O79 O 0.75306 0.80565 0.21668
 O80 O 0.80743 0.75516 0.21722
 O81 O 0.75302 0.69918 0.21827
 O82 O 0.69717 0.75167 0.21852
 C83 C 0.82114 0.82221 0.32748
 C84 C 0.68235 0.81406 0.32867
 C85 C 0.82516 0.69365 0.32814
 O86 O 0.87265 0.71026 0.24536
 O87 O 0.82628 0.67840 0.20173
 O88 O 0.79117 0.71269 0.15971
 C89 C 0.81735 0.68563 0.16960
 O90 O 0.67312 0.67856 0.29672
 Zr91 Zr 0.69982 0.70105 0.24984
 O92 O 0.71278 0.71284 0.15991
 O93 O 0.80255 0.64110 0.25308
 O94 O 0.71117 0.63849 0.25109
 O95 O 0.63377 0.70818 0.24887
 O96 O 0.67857 0.67741 0.20213
 C97 C 0.68653 0.68599 0.17009
 O98 O 0.78433 0.78173 0.14783
 O99 O 0.70389 0.86657 0.24945
 O100 O 0.71279 0.79009 0.15932
 O101 O 0.67735 0.82567 0.20074
 O102 O 0.79818 0.86973 0.24868
 O103 O 0.82926 0.83236 0.20087
 C104 C 0.68586 0.81651 0.16892
 H105 H 0.75223 0.83295 0.29288
 H106 H 0.83232 0.75553 0.20179
 H107 H 0.67121 0.75139 0.20447
 H108 H 0.75354 0.67909 0.29649
 H109 H 0.88629 0.82372 0.25271
 H110 H 0.88440 0.68283 0.24647
 H111 H 0.83149 0.63049 0.25135
 H112 H 0.68452 0.62482 0.24515
 H113 H 0.82577 0.88230 0.25340
 H114 H 0.67477 0.87674 0.25057
 H115 H 0.62193 0.82514 0.24696
 H116 H 0.62132 0.68176 0.24318
 H117 H 0.85325 0.85030 0.20590
 H118 H 0.77366 0.77121 0.12535
 H119 H 0.73691 0.73516 0.37306
 H120 H 0.65424 0.65584 0.29127
 Zr121 Zr 0.75244 0.25122 -0.31202
 O122 O 0.72058 0.28254 -0.35201
 O123 O 0.79174 0.21363 -0.34103
 O124 O 0.79401 0.28854 -0.34012
 O125 O 0.67441 0.18077 -0.29892
 O126 O 0.82694 0.32559 -0.29826
 O127 O 0.71262 0.21317 -0.34079
 O128 O 0.83227 0.18492 -0.29921
 O129 O 0.80730 0.25384 -0.28224
 O130 O 0.75301 0.19912 -0.28172
 O131 O 0.74809 0.30447 -0.28303
 O132 O 0.69598 0.25209 -0.28327
 Zr133 Zr 0.74870 0.25478 -0.19046
 Zr134 Zr 0.80134 0.30510 -0.25120
 Zr135 Zr 0.69903 0.20119 -0.25116
 Zr136 Zr 0.80641 0.20279 -0.25099
 O137 O 0.63275 0.20407 -0.25108
 O138 O 0.87172 0.21458 -0.24916
 O139 O 0.75256 0.20102 -0.21925
 O140 O 0.80444 0.25401 -0.21965
 O141 O 0.74755 0.30740 -0.22023
 O142 O 0.69424 0.25257 -0.22074
 C143 C 0.82215 0.19111 -0.33130
 C144 C 0.68375 0.18865 -0.33087
 C145 C 0.82025 0.31549 -0.33000
 O146 O 0.86743 0.30216 -0.24729
 O147 O 0.81967 0.33153 -0.20394
 O148 O 0.78663 0.29520 -0.16186
 C149 C 0.81152 0.32350 -0.17182
 O150 O 0.66623 0.32437 -0.29848
 Zr151 Zr 0.69447 0.30349 -0.25174
 O152 O 0.70837 0.29160 -0.16180
 O153 O 0.79412 0.36796 -0.25528
 O154 O 0.70291 0.36650 -0.25340
 O155 O 0.62875 0.29388 -0.24980
 O156 O 0.67331 0.32654 -0.20381
 C157 C 0.68170 0.31797 -0.17186
 O158 O 0.78246 0.22536 -0.15044
 O159 O 0.70644 0.13824 -0.25115
 O160 O 0.71063 0.21486 -0.16174
 O161 O 0.67672 0.17824 -0.20340
 O162 O 0.80135 0.13950 -0.25346
 O163 O 0.82917 0.17681 -0.20410
 C164 C 0.68439 0.18776 -0.17154
 H165 H 0.75335 0.17429 -0.29577
 H166 H 0.82933 0.25460 -0.20428
 H167 H 0.66827 0.25185 -0.20670
 H168 H 0.74716 0.32819 -0.29854
 H169 H 0.88638 0.18940 -0.25527
 H170 H 0.87794 0.33008 -0.24846
 H171 H 0.82253 0.37988 -0.25358
 H172 H 0.67573 0.37897 -0.24725
 H173 H 0.82966 0.12889 -0.25863
 H174 H 0.67788 0.12663 -0.25251
 H175 H 0.62228 0.17612 -0.25007
 H176 H 0.61545 0.31986 -0.24407
 H177 H 0.85383 0.15987 -0.20930
 H178 H 0.77146 0.23533 -0.12788
 H179 H 0.73180 0.27271 -0.37453
 H180 H 0.64643 0.34629 -0.29299
 Zr181 Zr 0.24819 0.75483 -0.30987
 O182 O 0.28094 0.72533 -0.35036
 O183 O 0.20616 0.79027 -0.33859
 O184 O 0.20820 0.71630 -0.33799
 O185 O 0.32199 0.82897 -0.29729
 O186 O 0.17564 0.67887 -0.29604
 O187 O 0.28663 0.79456 -0.33864
 O188 O 0.16671 0.81919 -0.29669
 O189 O 0.19359 0.74998 -0.27977
 O190 O 0.24573 0.80666 -0.27963
 O191 O 0.25503 0.70147 -0.28110
 O192 O 0.30485 0.75550 -0.28142
 Zr193 Zr 0.25226 0.75095 -0.18856
 Zr194 Zr 0.20206 0.69854 -0.24906
 Zr195 Zr 0.29995 0.80608 -0.24939
 Zr196 Zr 0.19271 0.80105 -0.24864
 O197 O 0.36625 0.80482 -0.25072
 O198 O 0.12736 0.78959 -0.24706
 O199 O 0.24655 0.80466 -0.21722
 O200 O 0.19645 0.74947 -0.21766
 O201 O 0.25576 0.69838 -0.21816
 O202 O 0.30680 0.75488 -0.21878
 C203 C 0.17557 0.81270 -0.32904
 C204 C 0.31317 0.82170 -0.32953
 C205 C 0.18230 0.68905 -0.32782
 O206 O 0.13669 0.69480 -0.24053
 O207 O 0.19076 0.66806 -0.20186
 O208 O 0.21483 0.70999 -0.15992
 C209 C 0.19649 0.67736 -0.16963
 O210 O 0.33864 0.68545 -0.29630
 Zr211 Zr 0.30848 0.70405 -0.24969
 O212 O 0.29429 0.71589 -0.15993
 O213 O 0.21106 0.63647 -0.25722
 O214 O 0.30209 0.64090 -0.25268
 O215 O 0.37386 0.71503 -0.24628
 O216 O 0.32833 0.67999 -0.20146
 C217 C 0.32014 0.68860 -0.16941
 O218 O 0.21818 0.77862 -0.14783
 O219 O 0.29098 0.86884 -0.24822
 O220 O 0.28835 0.79269 -0.16010
 O221 O 0.32252 0.82866 -0.20182
 O222 O 0.19700 0.86444 -0.25031
 O223 O 0.16884 0.82447 -0.20117
 C224 C 0.31489 0.81963 -0.16977
 H225 H 0.24427 0.83153 -0.29367
 H226 H 0.17159 0.74761 -0.20228
 H227 H 0.33272 0.75629 -0.20469
 H228 H 0.25687 0.67809 -0.29685
 H229 H 0.11284 0.81507 -0.25251
 H230 H 0.12365 0.71358 -0.25728
 H231 H 0.18348 0.62340 -0.25344
 H232 H 0.32946 0.62906 -0.24618
 H233 H 0.16870 0.87479 -0.25590
 H234 H 0.31919 0.88119 -0.24980
 H235 H 0.37594 0.83301 -0.24955
 H236 H 0.38751 0.68919 -0.24058
 H237 H 0.14580 0.84345 -0.20618
 H238 H 0.22998 0.76883 -0.12546
 H239 H 0.26919 0.73511 -0.37273
 H240 H 0.35884 0.66382 -0.29091
 Zr241 Zr 1.25780 1.25710 0.81119
 O242 O 1.22189 1.22784 0.85008
 O243 O 1.29836 1.29247 0.84108
 O244 O 1.29551 1.21809 0.84100
 O245 O 1.18298 1.33016 0.79620
 O246 O 1.33168 1.18228 0.80025
 O247 O 1.21864 1.29666 0.83884
 O248 O 1.34002 1.32228 0.80012
 O249 O 1.31397 1.25426 0.78304
 O250 O 1.26051 1.30911 0.78087
 O251 O 1.25410 1.20389 0.78209
 O252 O 1.20251 1.25672 0.78098
 Zr253 Zr 1.25845 1.25364 0.68980
 Zr254 Zr 1.30890 1.20308 0.75205
 Zr255 Zr 1.20753 1.30770 0.74910
 Zr256 Zr 1.31493 1.30518 0.75147
 O257 O 1.14126 1.30504 0.74842
 O258 O 1.38016 1.29308 0.75022
 O259 O 1.26221 1.30740 0.71853
 O260 O 1.31330 1.25398 0.72022
 O261 O 1.25616 1.20110 0.71961
 O262 O 1.20287 1.25632 0.71854
 C263 C 1.32926 1.31483 0.83182
 C264 C 1.19155 1.32248 0.82829
 C265 C 1.32196 1.19093 0.83188
 O266 O 1.37514 1.20619 0.75082
 O267 O 1.33049 1.17756 0.70543
 O268 O 1.29488 1.21099 0.66273
 C269 C 1.32095 1.18421 0.67344
 O270 O 1.17104 1.18551 0.79547
 Zr271 Zr 1.20176 1.20523 0.74936
 O272 O 1.21725 1.21871 0.65998
 O273 O 1.30107 1.14020 0.75499
 O274 O 1.20930 1.14219 0.75210
 O275 O 1.13622 1.21429 0.74463
 O276 O 1.18382 1.18108 0.70073
 C277 C 1.19197 1.19053 0.66883
 O278 O 1.29488 1.28098 0.65020
 O279 O 1.21581 1.37060 0.74835
 O280 O 1.22348 1.29530 0.66025
 O281 O 1.18683 1.33045 0.70085
 O282 O 1.31057 1.36848 0.75448
 O283 O 1.33899 1.33131 0.70504
 C284 C 1.19624 1.32190 0.66906
 H285 H 1.26120 1.33390 0.79490
 H286 H 1.33863 1.25322 0.70532
 H287 H 1.17744 1.25735 0.70381
 H288 H 1.25206 1.18012 0.79744
 H289 H 1.39494 1.31810 0.75676
 H290 H 1.38554 1.17830 0.75252
 H291 H 1.32952 1.12832 0.75483
 H292 H 1.18225 1.12983 0.74531
 H293 H 1.33882 1.37881 0.76040
 H294 H 1.18741 1.38255 0.74891
 H295 H 1.13112 1.33303 0.74681
 H296 H 1.12344 1.18803 0.73894
 H297 H 1.36336 1.34849 0.71073
 H298 H 1.28403 1.27111 0.62756
 H299 H 1.23282 1.23665 0.87302
 H300 H 1.15144 1.16345 0.78975
 Zr301 Zr 0.75247 0.75371 0.81187
 O302 O 0.78332 0.78747 0.85080
 O303 O 0.71341 0.71587 0.84112
 O304 O 0.71015 0.78991 0.83978
 O305 O 0.83462 0.68835 0.80004
 O306 O 0.67321 0.82269 0.79755
 O307 O 0.79283 0.71663 0.84132
 O308 O 0.67814 0.68086 0.79935
 O309 O 0.69766 0.75211 0.78192
 O310 O 0.75538 0.70127 0.78228
 O311 O 0.75327 0.80664 0.78204
 O312 O 0.80895 0.75773 0.78340
 Zr313 Zr 0.75726 0.75603 0.69029
 Zr314 Zr 0.70005 0.80320 0.75029
 Zr315 Zr 0.80926 0.70633 0.75198
 Zr316 Zr 0.70227 0.70090 0.75118
 O317 O 0.87522 0.71324 0.75108
 O318 O 0.63636 0.70878 0.74945
 O319 O 0.75631 0.70250 0.71974
 O320 O 0.70140 0.75166 0.71929
 O321 O 0.75407 0.80897 0.71939
 O322 O 0.81140 0.75736 0.72087
 C323 C 0.68624 0.68977 0.83127
 C324 C 0.82344 0.69386 0.83193
 C325 C 0.68157 0.81441 0.82958
 O326 O 0.63421 0.79574 0.74824
 O327 O 0.67707 0.82452 0.70233
 O328 O 0.71737 0.79366 0.66115
 C329 C 0.68743 0.81709 0.67059
 O330 O 0.83179 0.83398 0.79763
 Zr331 Zr 0.80724 0.80874 0.75111
 O332 O 0.79604 0.79487 0.66144
 O333 O 0.70307 0.86648 0.75174
 O334 O 0.79413 0.87096 0.74938
 O335 O 0.87341 0.80299 0.75254
 O336 O 0.83066 0.83045 0.70327
 C337 C 0.82300 0.82118 0.67140
 O338 O 0.72564 0.72473 0.65017
 O339 O 0.80634 0.64301 0.75387
 O340 O 0.79742 0.71732 0.66243
 O341 O 0.83142 0.68207 0.70486
 O342 O 0.71220 0.63815 0.75363
 O343 O 0.68091 0.67309 0.70469
 C344 C 0.82380 0.69061 0.67277
 H345 H 0.75635 0.67660 0.79660
 H346 H 0.67667 0.74991 0.70384
 H347 H 0.83759 0.75729 0.70708
 H348 H 0.75248 0.83073 0.79703
 H349 H 0.62328 0.68287 0.75594
 H350 H 0.62172 0.82291 0.74851
 H351 H 0.67380 0.87623 0.75049
 H352 H 0.82061 0.88503 0.74354
 H353 H 0.68493 0.62542 0.75928
 H354 H 0.83563 0.63328 0.75501
 H355 H 0.88734 0.68592 0.75088
 H356 H 0.88562 0.82941 0.74641
 H357 H 0.65738 0.65475 0.71022
 H358 H 0.73662 0.73490 0.62762
 H359 H 0.77149 0.77898 0.87355
 H360 H 0.84953 0.85743 0.79179
 Zr361 Zr 1.25592 0.74826 0.19017
 O362 O 1.21969 0.77717 0.15146
 O363 O 1.29653 0.71257 0.16064
 O364 O 1.29473 0.78605 0.15988
 O365 O 1.18449 0.67219 0.20569
 O366 O 1.32691 0.82551 0.20011
 O367 O 1.21745 0.70766 0.16295
 O368 O 1.33929 0.68549 0.20182
 O369 O 1.31180 0.75340 0.21830
 O370 O 1.26020 0.69674 0.22096
 O371 O 1.25030 0.80180 0.21856
 O372 O 1.20054 0.74728 0.22033
 Zr373 Zr 1.25623 0.75305 0.31131
 Zr374 Zr 1.30485 0.80486 0.24865
 Zr375 Zr 1.20712 0.69685 0.25259
 Zr376 Zr 1.31438 0.70297 0.25029
 O377 O 1.14081 0.69768 0.25257
 O378 O 1.37913 0.71744 0.25058
 O379 O 1.26170 0.69916 0.28314
 O380 O 1.31104 0.75447 0.28088
 O381 O 1.25219 0.80529 0.28122
 O382 O 1.20074 0.74838 0.28274
 C383 C 1.32788 0.69099 0.16997
 C384 C 1.19237 0.67993 0.17342
 C385 C 1.32001 0.81454 0.16845
 O386 O 1.37116 0.80464 0.24980
 O387 O 1.32567 0.83135 0.29511
 O388 O 1.29191 0.79642 0.33805
 C389 C 1.31697 0.82401 0.32717
 O390 O 1.16613 0.81692 0.20547
 Zr391 Zr 1.19803 0.79912 0.25154
 O392 O 1.21426 0.78698 0.34097
 O393 O 1.29461 0.86735 0.24524
 O394 O 1.20354 0.86230 0.24769
 O395 O 1.13283 0.78819 0.25700
 O396 O 1.18007 0.82368 0.30014
 C397 C 1.18872 0.81478 0.33208
 O398 O 1.29328 0.72713 0.35114
 O399 O 1.21704 0.63423 0.25457
 O400 O 1.22275 0.71053 0.34120
 O401 O 1.18679 0.67421 0.30096
 O402 O 1.31249 0.63950 0.24852
 O403 O 1.33950 0.67884 0.29709
 C404 C 1.19617 0.68318 0.33264
 H405 H 1.26163 0.67168 0.20729
 H406 H 1.33639 0.75619 0.29567
 H407 H 1.17539 0.74676 0.29756
 H408 H 1.24773 0.82514 0.20276
 H409 H 1.39470 0.69276 0.24446
 H410 H 1.38036 0.83293 0.24781
 H411 H 1.32260 0.88027 0.24513
 H412 H 1.17626 0.87391 0.25474
 H413 H 1.34126 0.63014 0.24326
 H414 H 1.18899 0.62144 0.25398
 H415 H 1.13142 0.66945 0.25453
 H416 H 1.11941 0.81411 0.26271
 H417 H 1.36494 0.66307 0.29170
 H418 H 1.28212 0.73683 0.37374
 H419 H 1.22829 0.76586 0.12868
 H420 H 1.14591 0.83844 0.21106
 Zr421 Zr 0.74933 1.25312 0.18728
 O422 O 0.78108 1.22006 0.14842
 O423 O 0.70930 1.28999 0.15835
 O424 O 0.70676 1.21719 0.15923
 O425 O 0.82961 1.32078 0.19884
 O426 O 0.67117 1.18276 0.20137
 O427 O 0.78836 1.29159 0.15773
 O428 O 0.67140 1.32189 0.20045
 O429 O 0.69466 1.25281 0.21751
 O430 O 0.75084 1.30538 0.21711
 O431 O 0.75161 1.19986 0.21662
 O432 O 0.80605 1.25029 0.21543
 Zr433 Zr 0.75475 1.25002 0.30849
 Zr434 Zr 0.69850 1.20150 0.24865
 Zr435 Zr 0.80515 1.30156 0.24699
 Zr436 Zr 0.69785 1.30389 0.24848
 O437 O 0.87127 1.29647 0.24719
 O438 O 0.63221 1.29462 0.25213
 O439 O 0.75223 1.30378 0.27951
 O440 O 0.69845 1.25272 0.28010
 O441 O 0.75278 1.19727 0.27916
 O442 O 0.80882 1.25024 0.27777
 C443 C 0.68001 1.31364 0.16844
 C444 C 0.81849 1.31512 0.16695
 C445 C 0.67863 1.19205 0.16937
 O446 O 0.63270 1.20725 0.25337
 O447 O 0.67866 1.17675 0.29632
 O448 O 0.71818 1.20882 0.33735
 C449 C 0.69035 1.18300 0.32789
 O450 O 0.83267 1.17684 0.20065
 Zr451 Zr 0.80573 1.19892 0.24746
 O452 O 0.79604 1.21400 0.33700
 O453 O 0.70278 1.13841 0.24502
 O454 O 0.79443 1.13632 0.24615
 O455 O 0.87185 1.20541 0.24914
 O456 O 0.82590 1.17488 0.29570
 C457 C 0.81992 1.18506 0.32774
 O458 O 0.72166 1.27941 0.34882
 O459 O 0.80047 1.36478 0.24576
 O460 O 0.79403 1.28939 0.33652
 O461 O 0.82746 1.32554 0.29419
 O462 O 0.70533 1.36691 0.24489
 O463 O 0.67757 1.33130 0.29546
 C464 C 0.82022 1.31640 0.32623
 H465 H 0.75089 1.33010 0.20283
 H466 H 0.67397 1.25309 0.29596
 H467 H 0.83506 1.25052 0.29150
 H468 H 0.75130 1.17606 0.20127
 H469 H 0.61843 1.32022 0.24585
 H470 H 0.62078 1.17989 0.25161
 H471 H 0.67378 1.12785 0.24658
 H472 H 0.82104 1.12275 0.25227
 H473 H 0.67739 1.37843 0.23976
 H474 H 0.82948 1.37533 0.24441
 H475 H 0.88267 1.32410 0.24749
 H476 H 0.88378 1.17881 0.25487
 H477 H 0.65375 1.34941 0.29049
 H478 H 0.73299 1.26925 0.37121
 H479 H 0.76838 1.22740 0.12574
 H480 H 0.85136 1.15402 0.20609
 N481 N 0.57834 1.04458 0.03751
 N482 N 0.60477 1.07424 0.04407
 N483 N 0.55071 0.95920 0.06044
 N484 N 0.55835 0.93107 0.08364
 N485 N 0.58011 0.96005 0.03651
 N486 N 0.60876 0.93242 0.04301
 N487 N 0.54911 1.04301 0.06157
 N488 N 0.55486 1.07116 0.08501
 C489 C 0.58914 1.09105 0.07358
 C490 C 0.59418 0.91403 0.07218
 N491 N 0.43122 0.95727 0.03754
 N492 N 0.40369 0.92865 0.04392
 N493 N 0.45915 1.04174 0.06223
 N494 N 0.45135 1.06960 0.08572
 N495 N 0.42955 1.04116 0.03860
 N496 N 0.40064 1.06807 0.04567
 N497 N 0.46095 0.95706 0.06106
 N498 N 0.45471 0.92792 0.08376
 Mn499 Mn 0.50500 1.00025 0.06165
 C500 C 0.41911 0.90986 0.07247
 C501 C 0.41490 1.08639 0.07477
 N502 N 0.57891 0.96124 -0.03909
 N503 N 0.60647 0.93278 -0.04604
 N504 N 0.54774 1.04550 -0.06157
 N505 N 0.55479 1.07318 -0.08539
 N506 N 0.57762 1.04561 -0.03805
 N507 N 0.60584 1.07343 -0.04541
 N508 N 0.54899 0.96141 -0.06259
 N509 N 0.55533 0.93322 -0.08597
 Mn510 Mn 0.57938 1.00288 -0.00079
 C511 C 0.59086 0.91506 -0.07510
 C512 C 0.59064 1.09100 -0.07466
 N513 N 0.42866 1.04305 -0.03621
 N514 N 0.39822 1.06849 -0.04331
 N515 N 0.45861 0.95998 -0.06192
 N516 N 0.44909 0.93472 -0.08710
 N517 N 0.43009 0.95872 -0.03727
 N518 N 0.40065 0.93230 -0.04485
 N519 N 0.45725 1.04391 -0.06081
 N520 N 0.44665 1.06960 -0.08544
 Mn521 Mn 0.42952 1.00004 0.00068
 Mn522 Mn 0.50324 1.00273 -0.06201
 Cl523 Cl 0.50436 1.00149 -0.00016
 C524 C 0.40973 1.08486 -0.07417
 C525 C 0.41344 0.91701 -0.07566
 N526 N 1.04789 0.43063 0.53715
 N527 N 1.07621 0.40297 0.54379
 N528 N 0.96047 0.45758 0.56171
 N529 N 0.93591 0.44633 0.58767
 N530 N 0.96016 0.43045 0.53694
 N531 N 0.93554 0.40020 0.54542
 N532 N 1.04879 0.45863 0.56104
 N533 N 1.07821 0.45080 0.58427
 C534 C 1.09577 0.41613 0.57288
 C535 C 0.92030 0.41072 0.57688
 N536 N 0.95871 0.57133 0.53697
 N537 N 0.93487 0.60183 0.54590
 N538 N 1.04747 0.54535 0.56144
 N539 N 1.07122 0.55715 0.58765
 N540 N 1.04675 0.57288 0.53695
 N541 N 1.07014 0.60383 0.54577
 N542 N 0.95988 0.54461 0.56214
 N543 N 0.93741 0.55696 0.58901
 Mn544 Mn 1.00419 0.50144 0.56187
 C545 C 0.92174 0.59269 0.57839
 C546 C 1.08543 0.59349 0.57728
 N547 N 0.96019 0.43070 0.46189
 N548 N 0.93588 0.40037 0.45310
 N549 N 1.04863 0.45821 0.43795
 N550 N 1.07326 0.44717 0.41204
 N551 N 1.04819 0.43062 0.46240
 N552 N 1.07261 0.40036 0.45383
 N553 N 0.96091 0.45779 0.43697
 N554 N 0.93751 0.44601 0.41049
 Mn555 Mn 1.00401 0.43044 0.49962
 C556 C 0.92186 0.41016 0.42100
 C557 C 1.08827 0.41123 0.42252
 N558 N 1.04712 0.57282 0.46238
 N559 N 1.07567 0.60058 0.45646
 N560 N 0.96074 0.54525 0.43683
 N561 N 0.93846 0.55814 0.41000
 N562 N 0.95913 0.57144 0.46229
 N563 N 0.93525 0.60202 0.45369
 N564 N 1.04883 0.54488 0.43849
 N565 N 1.07899 0.55285 0.41592
 Mn566 Mn 1.00283 0.57219 0.49961
 Mn567 Mn 1.00479 0.50157 0.43725
 Cl568 Cl 1.00381 0.50140 0.49958
 C569 C 1.09613 0.58756 0.42776
 C570 C 0.92256 0.59361 0.42104
 N571 N 1.04739 0.45839 -0.06324
 N572 N 1.07536 0.44986 -0.08744
 N573 N 0.95845 0.43242 -0.03890
 N574 N 0.93037 0.40463 -0.04661
 N575 N 0.95916 0.46043 -0.06297
 N576 N 0.93197 0.45213 -0.08784
 N577 N 1.04655 0.43027 -0.03927
 N578 N 1.07341 0.40152 -0.04684
 C579 C 1.09176 0.41465 -0.07653
 C580 C 0.91347 0.41780 -0.07688
 N581 N 0.95841 0.46054 0.05956
 N582 N 0.92970 0.45263 0.08342
 N583 N 1.04691 0.43042 0.03624
 N584 N 1.07471 0.40234 0.04375
 N585 N 1.04660 0.45806 0.06055
 N586 N 1.07403 0.44958 0.08511
 N587 N 0.95884 0.43234 0.03582
 N588 N 0.93069 0.40460 0.04299
 Mn589 Mn 1.00281 0.43101 -0.00150
 C590 C 0.91187 0.41797 0.07231
 C591 C 1.09196 0.41520 0.07403
 N592 N 0.96206 0.54718 -0.06240
 N593 N 0.93291 0.55592 -0.08554
 N594 N 1.05278 0.57188 -0.03919
 N595 N 1.08338 0.59746 -0.04657
 N596 N 1.04998 0.54451 -0.06356
 N597 N 1.07808 0.55097 -0.08807
 N598 N 0.96460 0.57551 -0.03884
 N599 N 0.93748 0.60424 -0.04548
 Mn600 Mn 1.00451 0.50266 -0.06334
 C601 C 0.91715 0.59135 -0.07428
 C602 C 1.09965 0.58344 -0.07698
 N603 N 1.04965 0.54412 0.06081
 N604 N 1.07546 0.55244 0.08661
 N605 N 0.96377 0.57557 0.03609
 N606 N 0.93762 0.60498 0.04384
 N607 N 0.96194 0.54730 0.05991
 N608 N 0.93504 0.55695 0.08461
 N609 N 1.05204 0.57174 0.03645
 N610 N 1.07973 0.59949 0.04507
 Mn611 Mn 1.00401 0.50247 0.06046
 Mn612 Mn 1.00849 0.57410 -0.00140
 Cl613 Cl 1.00499 0.50258 -0.00145
 C614 C 1.09472 0.58645 0.07605
 C615 C 0.91934 0.59250 0.07386
 N616 N 0.57942 1.04038 0.53936
 N617 N 0.60735 1.06865 0.54614
 N618 N 0.54802 0.95634 0.56151
 N619 N 0.55570 0.92899 0.58543
 N620 N 0.57731 0.95609 0.53747
 N621 N 0.60577 0.92855 0.54456
 N622 N 0.54968 1.04039 0.56305
 N623 N 0.55656 1.06848 0.58646
 C624 C 0.59224 1.08640 0.57535
 C625 C 0.59129 0.91123 0.57418
 N626 N 0.42836 0.95902 0.53780
 N627 N 0.39780 0.93375 0.54565
 N628 N 0.45906 1.04181 0.56341
 N629 N 0.44859 1.06532 0.58964
 N630 N 0.43020 1.04305 0.53906
 N631 N 0.39955 1.06744 0.54801
 N632 N 0.45788 0.95756 0.56155
 N633 N 0.44836 0.93099 0.58581
 Mn634 Mn 0.50374 0.99906 0.56264
 C635 C 0.41113 0.91558 0.57527
 C636 C 0.41153 1.08127 0.57952
 N637 N 0.57724 0.95790 0.46189
 N638 N 0.60396 0.92884 0.45438
 N639 N 0.55083 1.04393 0.43998
 N640 N 0.56212 1.06854 0.41470
 N641 N 0.58002 1.04236 0.46405
 N642 N 0.61169 1.06609 0.45579
 N643 N 0.54794 0.96001 0.43795
 N644 N 0.55405 0.93282 0.41365
 Mn645 Mn 0.57899 0.99912 0.50072
 C646 C 0.58857 0.91285 0.42443
 C647 C 0.60006 1.08236 0.42496
 N648 N 0.43050 1.04536 0.46410
 N649 N 0.40126 1.07196 0.45676
 N650 N 0.45754 0.96229 0.43811
 N651 N 0.44640 0.93907 0.41191
 N652 N 0.42874 0.96157 0.46259
 N653 N 0.39736 0.93797 0.45366
 N654 N 0.46029 1.04645 0.44054
 N655 N 0.45220 1.07417 0.41694
 Mn656 Mn 0.42920 1.00221 0.50087
 Mn657 Mn 0.50415 1.00324 0.43890
 Cl658 Cl 0.50406 1.00091 0.50078
 C659 C 0.41553 1.09059 0.42768
 C660 C 0.40893 0.92399 0.42209
 N661 N 1.08123 1.04528 0.53803
 N662 N 1.11057 1.07208 0.54479
 N663 N 1.04920 0.96294 0.56366
 N664 N 1.05428 0.93507 0.58756
 N665 N 1.07902 0.96109 0.54015
 N666 N 1.10548 0.93185 0.54772
 N667 N 1.05113 1.04725 0.56122
 N668 N 1.05897 1.07577 0.58401
 C669 C 1.09591 1.09166 0.57318
 C670 C 1.08914 0.91544 0.57718
 N671 N 0.93051 0.96368 0.53909
 N672 N 0.90250 0.93558 0.54614
 N673 N 0.96119 1.04838 0.56078
 N674 N 0.95283 1.07523 0.58486
 N675 N 0.93186 1.04802 0.53681
 N676 N 0.90281 1.07499 0.54391
 N677 N 0.95956 0.96465 0.56323
 N678 N 0.95218 0.93742 0.58731
 Mn679 Mn 1.00531 1.00588 0.56250
 C680 C 0.91699 0.91893 0.57605
 C681 C 0.91692 1.09223 0.57361
 N682 N 1.08005 0.95937 0.46475
 N683 N 1.10884 0.93218 0.45789
 N684 N 1.05218 1.04287 0.43900
 N685 N 1.05963 1.07010 0.41495
 N686 N 1.08149 1.04344 0.46299
 N687 N 1.10974 1.07133 0.45584
 N688 N 1.05054 0.95868 0.44099
 N689 N 1.05823 0.93055 0.41780
 Mn690 Mn 1.08100 1.00224 0.50148
 C691 C 1.09444 0.91359 0.42892
 C692 C 1.09516 1.08809 0.42602
 N693 N 0.93229 1.04516 0.46182
 N694 N 0.90375 1.07218 0.45383
 N695 N 0.96040 0.96040 0.43995
 N696 N 0.94985 0.93607 0.41439
 N697 N 0.93091 0.96125 0.46385
 N698 N 0.89958 0.93743 0.45504
 N699 N 0.96206 1.04457 0.43825
 N700 N 0.95470 1.07152 0.41382
 Mn701 Mn 0.93094 1.00448 0.50042
 Mn702 Mn 1.00637 1.00162 0.43925
 Cl703 Cl 1.00587 1.00351 0.50088
 C704 C 0.91854 1.08921 0.42421
 C705 C 0.91202 0.92172 0.42423
 N706 N 0.57963 0.54252 0.03791
 N707 N 0.60902 0.56899 0.04543
 N708 N 0.54765 0.45882 0.06046
 N709 N 0.55344 0.43026 0.08360
 N710 N 0.57725 0.45825 0.03675
 N711 N 0.60406 0.42901 0.04319
 N712 N 0.55010 0.54259 0.06173
 N713 N 0.55872 0.56883 0.08631
 C714 C 0.59504 0.58555 0.07535
 C715 C 0.58821 0.41127 0.07221
 N716 N 0.42891 0.46156 0.03553
 N717 N 0.39830 0.43632 0.04300
 N718 N 0.45999 0.54446 0.06081
 N719 N 0.45259 0.57124 0.08514
 N720 N 0.43078 0.54558 0.03676
 N721 N 0.40271 0.57336 0.04405
 N722 N 0.45794 0.46055 0.05973
 N723 N 0.44799 0.43449 0.08422
 Mn724 Mn 0.50392 0.50165 0.06099
 C725 C 0.41099 0.41940 0.07323
 C726 C 0.41731 0.58956 0.07400
 N727 N 0.57803 0.46043 -0.03828
 N728 N 0.60615 0.43280 -0.04576
 N729 N 0.55127 0.54604 -0.06078
 N730 N 0.56023 0.57345 -0.08434
 N731 N 0.58054 0.54454 -0.03679
 N732 N 0.61025 0.57112 -0.04337
 N733 N 0.54927 0.46227 -0.06267
 N734 N 0.55701 0.43608 -0.08744
 Mn735 Mn 0.57941 0.50136 -0.00010
 C736 C 0.59196 0.41745 -0.07611
 C737 C 0.59652 0.58937 -0.07271
 N738 N 0.43143 0.54715 -0.03795
 N739 N 0.40322 0.57491 -0.04458
 N740 N 0.45960 0.46385 -0.06325
 N741 N 0.45393 0.43486 -0.08598
 N742 N 0.43015 0.46315 -0.03940
 N743 N 0.40351 0.43363 -0.04531
 N744 N 0.46140 0.54809 -0.06129
 N745 N 0.45458 0.57686 -0.08415
 Mn746 Mn 0.42981 0.50432 -0.00129
 Mn747 Mn 0.50536 0.50514 -0.06236
 Cl748 Cl 0.50465 0.50311 -0.00067
 C749 C 0.41843 0.59397 -0.07308
 C750 C 0.41919 0.41587 -0.07423
 C751 C 0.32535 1.15254 0.10909
 C752 C 0.34019 1.15979 0.14344
 C753 C 0.38002 1.14559 0.15272
 C754 C 0.40426 1.12368 0.12956
 C755 C 0.39059 1.11616 0.09551
 C756 C 0.35207 1.13347 0.08423
 C757 C 0.28419 1.16258 0.09897
 C758 C 0.27139 1.15907 0.06443
 C759 C 0.29922 1.14528 0.03935
 C760 C 0.33913 1.13252 0.04901
 H761 H 0.26113 1.17195 0.11767
 H762 H 0.23987 1.16750 0.05705
 H763 H 0.28966 1.14390 0.01232
 H764 H 0.35977 1.12331 0.02830
 H765 H 0.39255 1.15101 0.17851
 H766 H 0.43379 1.11180 0.13884
 C767 C 0.87360 0.68678 0.62096
 C768 C 0.84773 0.66794 0.64629
 C769 C 0.84743 0.62611 0.64876
 C770 C 0.87140 0.60271 0.62641
 C771 C 0.89745 0.62021 0.60120
 C772 C 0.89973 0.66289 0.59898
 C773 C 0.87550 0.72896 0.61798
 C774 C 0.90224 0.74729 0.59409
 C775 C 0.92909 0.72433 0.57397
 C776 C 0.92858 0.68274 0.57677
 H777 H 0.85677 0.74831 0.63411
 H778 H 0.90286 0.77954 0.59165
 H779 H 0.95088 0.73887 0.55637
 H780 H 0.95207 0.66714 0.56201
 H781 H 0.82823 0.61131 0.66823
 H782 H 0.86952 0.57042 0.62890
 C783 C 0.61831 0.83033 0.13694
 C784 C 0.66184 0.83700 0.14145
 C785 C 0.68277 0.86411 0.11970
 C786 C 0.66067 0.88708 0.09556
 C787 C 0.61708 0.88324 0.09234
 C788 C 0.59584 0.85315 0.11176
 C789 C 0.59673 0.80097 0.15655
 C790 C 0.55417 0.79382 0.15111
 C791 C 0.53239 0.81546 0.12599
 C792 C 0.55290 0.84470 0.10633
 H793 H 0.61261 0.78283 0.17576
 H794 H 0.53813 0.77102 0.16618
 H795 H 0.49948 0.80937 0.12152
 H796 H 0.53500 0.85974 0.08633
 H797 H 0.71621 0.86885 0.12253
 H798 H 0.67747 0.90957 0.08068
 C799 C 1.16421 0.32958 0.60748
 C800 C 1.17383 0.34488 0.64126
 C801 C 1.16113 0.38395 0.64952
 C802 C 1.13789 0.40693 0.62636
 C803 C 1.12748 0.39270 0.59316
 C804 C 1.14382 0.35486 0.58249
 C805 C 1.17294 0.28951 0.59796
 C806 C 1.16649 0.27614 0.56404
 C807 C 1.15160 0.30224 0.53879
 C808 C 1.14046 0.34119 0.54774
 H809 H 1.18376 0.26758 0.61638
 H810 H 1.17360 0.24549 0.55717
 H811 H 1.14821 0.29213 0.51216
 H812 H 1.13068 0.36044 0.52673
 H813 H 1.16824 0.39672 0.67476
 H814 H 1.12703 0.43595 0.63510
 C815 C 0.61565 1.17258 -0.14163
 C816 C 0.65960 1.16721 -0.14443
 C817 C 0.68011 1.14139 -0.12138
 C818 C 0.65738 1.11853 -0.09748
 C819 C 0.61355 1.12127 -0.09565
 C820 C 0.59253 1.15012 -0.11650
 C821 C 0.59428 1.20054 -0.16275
 C822 C 0.55144 1.20697 -0.15871
 C823 C 0.52908 1.18606 -0.13343
 C824 C 0.54926 1.15794 -0.11243
 H825 H 0.61050 1.21833 -0.18204
 H826 H 0.53569 1.22870 -0.17498
 H827 H 0.49599 1.19191 -0.12992
 H828 H 0.53082 1.14343 -0.09242
 H829 H 0.71378 1.13758 -0.12294
 H830 H 0.67407 1.09710 -0.08146
 C831 C 1.16447 0.67485 0.39429
 C832 C 1.17453 0.65973 0.36054
 C833 C 1.16282 0.62035 0.35226
 C834 C 1.13966 0.59699 0.37520
 C835 C 1.12829 0.61121 0.40815
 C836 C 1.14398 0.64925 0.41905
 C837 C 1.17290 0.71495 0.40403
 C838 C 1.16601 0.72810 0.43796
 C839 C 1.15077 0.70179 0.46298
 C840 C 1.13990 0.66279 0.45379
 H841 H 1.18396 0.73707 0.38585
 H842 H 1.17307 0.75877 0.44500
 H843 H 1.14694 0.71175 0.48961
 H844 H 1.12979 0.64337 0.47461
 H845 H 1.17052 0.60767 0.32710
 H846 H 1.12945 0.56776 0.36637
 C847 C 0.35120 0.82677 -0.10969
 C848 C 0.33887 0.84238 -0.14290
 C849 C 0.35167 0.88127 -0.15218
 C850 C 0.37602 0.90442 -0.13011
 C851 C 0.38762 0.89029 -0.09733
 C852 C 0.37484 0.85159 -0.08648
 C853 C 0.34244 0.78694 -0.09920
 C854 C 0.35424 0.77289 -0.06640
 C855 C 0.37583 0.79767 -0.04354
 C856 C 0.38659 0.83646 -0.05353
 H857 H 0.32742 0.76560 -0.11597
 H858 H 0.34698 0.74240 -0.05882
 H859 H 0.38500 0.78652 -0.01817
 H860 H 0.40462 0.85424 -0.03538
 H861 H 0.34296 0.89410 -0.17708
 H862 H 0.38546 0.93410 -0.13860
 C863 C 0.87287 0.31801 0.37579
 C864 C 0.84500 0.33797 0.35279
 C865 C 0.84346 0.37982 0.35274
 C866 C 0.86830 0.40216 0.37529
 C867 C 0.89611 0.38356 0.39847
 C868 C 0.89920 0.34086 0.39847
 C869 C 0.87665 0.27582 0.37549
 C870 C 0.90505 0.25635 0.39715
 C871 C 0.93122 0.27841 0.41870
 C872 C 0.92905 0.32011 0.41897
 H873 H 0.85834 0.25742 0.35821
 H874 H 0.90740 0.22400 0.39665
 H875 H 0.95391 0.26313 0.43490
 H876 H 0.95198 0.33522 0.43474
 H877 H 0.82280 0.39543 0.33492
 H878 H 0.86576 0.43452 0.37455
 C879 C 1.18599 0.35377 0.10738
 C880 C 1.17274 0.34752 0.14260
 C881 C 1.13444 0.36421 0.15334
 C882 C 1.10937 0.38586 0.13067
 C883 C 1.12090 0.39146 0.09595
 C884 C 1.15950 0.37566 0.08393
 C885 C 1.22528 0.34039 0.09495
 C886 C 1.23780 0.34764 0.06071
 C887 C 1.21179 0.36847 0.03804
 C888 C 1.17310 0.38256 0.04944
 H889 H 1.24762 0.32537 0.11132
 H890 H 1.26816 0.33739 0.05184
 H891 H 1.22189 0.37419 0.01156
 H892 H 1.15437 0.39945 0.03114
 H893 H 1.12311 0.36010 0.17971
 H894 H 1.08006 0.39790 0.14036
 C895 C 0.61818 0.83003 0.64078
 C896 C 0.66210 0.83622 0.64315
 C897 C 0.68193 0.86224 0.61977
 C898 C 0.65859 0.88461 0.59607
 C899 C 0.61476 0.88140 0.59497
 C900 C 0.59435 0.85247 0.61622
 C901 C 0.59754 0.80137 0.66183
 C902 C 0.55449 0.79506 0.65888
 C903 C 0.53130 0.81652 0.63455
 C904 C 0.55092 0.84467 0.61316
 H905 H 0.61447 0.78305 0.68026
 H906 H 0.53917 0.77294 0.67517
 H907 H 0.49800 0.81097 0.63192
 H908 H 0.53184 0.85929 0.59370
 H909 H 0.71552 0.86673 0.62103
 H910 H 0.67478 0.90619 0.57977
 C911 C 1.17715 0.60955 -0.15074
 C912 C 1.18149 0.65170 -0.14490
 C913 C 1.16798 0.66694 -0.11260
 C914 C 1.14329 0.64379 -0.09015
 C915 C 1.13310 0.60388 -0.09799
 C916 C 1.15323 0.58551 -0.12702
 C917 C 1.19956 0.59000 -0.17772
 C918 C 1.19583 0.54897 -0.18311
 C919 C 1.17177 0.52588 -0.16068
 C920 C 1.15188 0.54353 -0.13234
 H921 H 1.22194 0.60564 -0.19390
 H922 H 1.21291 0.53480 -0.20410
 H923 H 1.16991 0.49379 -0.16444
 H924 H 1.13756 0.52327 -0.11401
 H925 H 1.17257 0.69823 -0.10610
 H926 H 1.13015 0.65807 -0.06733
 C927 C 0.69206 1.12748 0.37287
 C928 C 0.67028 1.15822 0.35502
 C929 C 0.62750 1.16366 0.36110
 C930 C 0.60603 1.13933 0.38457
 C931 C 0.62657 1.10878 0.40291
 C932 C 0.67029 1.10264 0.39728
 C933 C 0.73467 1.11976 0.36570
 C934 C 0.75608 1.08941 0.38306
 C935 C 0.73525 1.06555 0.40719
 C936 C 0.69272 1.07140 0.41381
 H937 H 0.75174 1.13696 0.34650
 H938 H 0.78890 1.08417 0.37757
 H939 H 0.75203 1.04197 0.42055
 H940 H 0.67814 1.05065 0.43158
 H941 H 0.61040 1.18668 0.34716
 H942 H 0.57273 1.14422 0.38819
 C943 C 0.82525 0.65226 0.10886
 C944 C 0.84071 0.66188 0.14280
 C945 C 0.88082 0.64825 0.15222
 C946 C 0.90538 0.62611 0.12944
 C947 C 0.89160 0.61746 0.09580
 C948 C 0.85153 0.63084 0.08498
 C949 C 0.78396 0.66167 0.09828
 C950 C 0.76987 0.65253 0.06484
 C951 C 0.79608 0.63313 0.04138
 C952 C 0.83635 0.62189 0.05137
 H953 H 0.76150 0.67503 0.11559
 H954 H 0.73819 0.66017 0.05724
 H955 H 0.78487 0.62604 0.01551
 H956 H 0.85522 0.60574 0.03269
 H957 H 0.89370 0.65486 0.17767
 H958 H 0.93589 0.61595 0.13813
 C959 C 0.32004 1.12633 0.63127
 C960 C 0.34136 1.15856 0.64739
 C961 C 0.38410 1.16436 0.64110
 C962 C 0.40589 1.13906 0.61879
 C963 C 0.38563 1.10735 0.60192
 C964 C 0.34221 1.10046 0.60818
 C965 C 0.27753 1.11830 0.63877
 C966 C 0.25683 1.08619 0.62325
 C967 C 0.27829 1.06089 0.60075
 C968 C 0.32062 1.06747 0.59358
 H969 H 0.25998 1.13666 0.65675
 H970 H 0.22409 1.08068 0.62900
 H971 H 0.26221 1.03562 0.58919
 H972 H 0.33600 1.04587 0.57713
 H973 H 0.40086 1.18844 0.65393
 H974 H 0.43901 1.14421 0.61459
 C975 C 0.81911 0.35760 -0.11144
 C976 C 0.83457 0.34787 -0.14530
 C977 C 0.87434 0.36223 -0.15510
 C978 C 0.89869 0.38502 -0.13267
 C979 C 0.88503 0.39370 -0.09900
 C980 C 0.84512 0.37987 -0.08791
 C981 C 0.77808 0.34741 -0.10064
 C982 C 0.76385 0.35690 -0.06731
 C983 C 0.78971 0.37732 -0.04420
 C984 C 0.82981 0.38911 -0.05439
 H985 H 0.75598 0.33308 -0.11774
 H986 H 0.73234 0.34872 -0.05951
 H987 H 0.77838 0.38468 -0.01841
 H988 H 0.84839 0.40601 -0.03599
 H989 H 0.88720 0.35554 -0.18055
 H990 H 0.92911 0.39537 -0.14155
 C991 C 0.31701 0.88181 0.36927
 C992 C 0.33765 0.84922 0.35324
 C993 C 0.37988 0.84186 0.36033
 C994 C 0.40197 0.86624 0.38318
 C995 C 0.38248 0.89857 0.39969
 C996 C 0.33950 0.90681 0.39283
 C997 C 0.27486 0.89085 0.36140
 C998 C 0.25486 0.92327 0.37697
 C999 C 0.27671 0.94786 0.39985
 C1000 C 0.31870 0.94018 0.40744
 H1001 H 0.25703 0.87293 0.34320
 H1002 H 0.22236 0.92954 0.37098
 H1003 H 0.26119 0.97338 0.41146
 H1004 H 0.33444 0.96114 0.42433
 H1005 H 0.39600 0.81725 0.34776
 H1006 H 0.43472 0.85985 0.38807
 C1007 C 1.15602 1.18038 0.39328
 C1008 C 1.16039 1.16931 0.35747
 C1009 C 1.14309 1.13283 0.34634
 C1010 C 1.12247 1.10747 0.36913
 C1011 C 1.11843 1.11705 0.40429
 C1012 C 1.13488 1.15376 0.41680
 C1013 C 1.17050 1.21753 0.40632
 C1014 C 1.16478 1.22793 0.44115
 C1015 C 1.14426 1.20196 0.46379
 C1016 C 1.12921 1.16530 0.45182
 H1017 H 1.18526 1.23972 0.39007
 H1018 H 1.17590 1.25661 0.45053
 H1019 H 1.13956 1.21046 0.49071
 H1020 H 1.11246 1.14652 0.47010
 H1021 H 1.14601 1.12314 0.31955
 H1022 H 1.10995 1.07956 0.35913
 C1023 C 0.64319 0.68390 -0.11288
 C1024 C 0.66410 0.66640 -0.14179
 C1025 C 0.66360 0.62473 -0.14593
 C1026 C 0.64272 0.60032 -0.12237
 C1027 C 0.62187 0.61675 -0.09383
 C1028 C 0.62216 0.65863 -0.08849
 C1029 C 0.64109 0.72578 -0.10835
 C1030 C 0.61983 0.74228 -0.08004
 C1031 C 0.60000 0.71749 -0.05591
 C1032 C 0.60095 0.67600 -0.06002
 H1033 H 0.65506 0.74617 -0.12679
 H1034 H 0.61852 0.77448 -0.07694
 H1035 H 0.58342 0.73051 -0.03411
 H1036 H 0.58484 0.65768 -0.04092
 H1037 H 0.67941 0.61091 -0.16781
 H1038 H 0.64220 0.56825 -0.12678
 C1039 C 0.85413 1.18216 0.60715
 C1040 C 0.84612 1.16851 0.64188
 C1041 C 0.86171 1.13103 0.65220
 C1042 C 0.88434 1.10721 0.62956
 C1043 C 0.89208 1.11951 0.59544
 C1044 C 0.87735 1.15718 0.58384
 C1045 C 0.84133 1.22030 0.59512
 C1046 C 0.85103 1.23336 0.56154
 C1047 C 0.87369 1.20897 0.53912
 C1048 C 0.88676 1.17120 0.55002
 H1049 H 0.82495 1.24126 0.61136
 H1050 H 0.84132 1.26285 0.55302
 H1051 H 0.88138 1.21946 0.51318
 H1052 H 0.90486 1.15343 0.53194
 H1053 H 0.85602 1.11957 0.67819
 H1054 H 0.89560 1.07845 0.63877
 C1055 C 0.35719 0.68089 0.10791
 C1056 C 0.35113 0.66814 0.14307
 C1057 C 0.36704 0.63090 0.15359
 C1058 C 0.38820 0.60639 0.13064
 C1059 C 0.39368 0.61757 0.09594
 C1060 C 0.37806 0.65483 0.08402
 C1061 C 0.34471 0.71916 0.09602
 C1062 C 0.35076 0.73062 0.06142
 C1063 C 0.37012 0.70477 0.03809
 C1064 C 0.38419 0.66743 0.04927
 H1065 H 0.33127 0.74117 0.11313
 H1066 H 0.34091 0.75998 0.05275
 H1067 H 0.37497 0.71400 0.01134
 H1068 H 0.40043 0.64889 0.03060
 H1069 H 0.36271 0.62009 0.17997
 H1070 H 0.39991 0.57789 0.14007
 C1071 C 1.15288 0.82414 0.60935
 C1072 C 1.15207 0.83215 0.64631
 C1073 C 1.12570 0.86339 0.65791
 C1074 C 1.10563 0.88889 0.63500
 C1075 C 1.10966 0.88446 0.59908
 C1076 C 1.13160 0.85087 0.58585
 C1077 C 1.17105 0.78905 0.59491
 C1078 C 1.16945 0.78125 0.55931
 C1079 C 1.14942 0.80759 0.53693
 C1080 C 1.13050 0.84194 0.54993
 H1081 H 1.18459 0.76557 0.61037
 H1082 H 1.18315 0.75403 0.54911
 H1083 H 1.14758 0.80078 0.50942
 H1084 H 1.11350 0.86036 0.53165
 H1085 H 1.12198 0.87029 0.68531
 H1086 H 1.08775 0.91350 0.64580
 C1087 C 0.61043 0.33108 0.14076
 C1088 C 0.65478 0.33336 0.14130
 C1089 C 0.67578 0.35573 0.11582
 C1090 C 0.65354 0.37876 0.09193
 C1091 C 0.60962 0.37962 0.09252
 C1092 C 0.58763 0.35368 0.11563
 C1093 C 0.58824 0.30626 0.16426
 C1094 C 0.54466 0.30383 0.16310
 C1095 C 0.52246 0.32480 0.13787
 C1096 C 0.54358 0.34914 0.11407
 H1097 H 0.60426 0.28812 0.18339
 H1098 H 0.52805 0.28512 0.18155
 H1099 H 0.48871 0.32190 0.13656
 H1100 H 0.52505 0.36336 0.09403
 H1101 H 0.70974 0.35709 0.11561
 H1102 H 0.67093 0.39782 0.07418
 C1103 C 0.82105 0.87991 0.36984
 C1104 C 0.84185 0.84730 0.35383
 C1105 C 0.88418 0.84049 0.36081
 C1106 C 0.90580 0.86447 0.38436
 C1107 C 0.88587 0.89627 0.40142
 C1108 C 0.84316 0.90477 0.39382
 C1109 C 0.77925 0.88947 0.36119
 C1110 C 0.75940 0.92245 0.37596
 C1111 C 0.78082 0.94676 0.39926
 C1112 C 0.82236 0.93848 0.40786
 H1113 H 0.76163 0.87180 0.34277
 H1114 H 0.72731 0.92937 0.36906
 H1115 H 0.76531 0.97248 0.41042
 H1116 H 0.83775 0.95944 0.42492
 H1117 H 0.90068 0.81641 0.34784
 H1118 H 0.93861 0.85822 0.38921
 C1119 C 0.39772 0.33083 -0.13813
 C1120 C 0.35359 0.33446 -0.14053
 C1121 C 0.33216 0.35923 -0.11725
 C1122 C 0.35401 0.38361 -0.09423
 C1123 C 0.39793 0.38348 -0.09356
 C1124 C 0.42014 0.35518 -0.11406
 C1125 C 0.41991 0.30290 -0.15861
 C1126 C 0.46322 0.29893 -0.15535
 C1127 C 0.48513 0.32214 -0.13139
 C1128 C 0.46392 0.34985 -0.11075
 H1129 H 0.40396 0.28333 -0.17673
 H1130 H 0.47974 0.27735 -0.17118
 H1131 H 0.51866 0.31835 -0.12851
 H1132 H 0.48203 0.36604 -0.09159
 H1133 H 0.29832 0.36140 -0.11824
 H1134 H 0.33645 0.40445 -0.07831
 C1135 C 1.18444 0.38324 -0.13309
 C1136 C 1.16924 0.34584 -0.14513
 C1137 C 1.13136 0.33072 -0.13227
 C1138 C 1.10758 0.35277 -0.10871
 C1139 C 1.12095 0.39063 -0.09761
 C1140 C 1.16019 0.40572 -0.10890
 C1141 C 1.22326 0.39880 -0.14452
 C1142 C 1.23841 0.43504 -0.13156
 C1143 C 1.21516 0.45653 -0.10726
 C1144 C 1.17624 0.44228 -0.09614
 H1145 H 1.24240 0.38290 -0.16314
 H1146 H 1.26845 0.44641 -0.14028
 H1147 H 1.22717 0.48456 -0.09720
 H1148 H 1.15919 0.45979 -0.07716
 H1149 H 1.11965 0.30201 -0.14116
 H1150 H 1.07768 0.34086 -0.10012
 C1151 C 0.61159 0.83332 0.35447
 C1152 C 0.65603 0.83312 0.35601
 C1153 C 0.67590 0.85275 0.38366
 C1154 C 0.65330 0.87687 0.40660
 C1155 C 0.60972 0.88110 0.40345
 C1156 C 0.58816 0.85695 0.37863
 C1157 C 0.58984 0.80915 0.33029
 C1158 C 0.54622 0.80855 0.32944
 C1159 C 0.52335 0.83102 0.35319
 C1160 C 0.54388 0.85455 0.37784
 H1161 H 0.60618 0.78948 0.31260
 H1162 H 0.53006 0.78978 0.31079
 H1163 H 0.48948 0.82953 0.35290
 H1164 H 0.52452 0.86939 0.39690
 H1165 H 0.70952 0.85093 0.38660
 H1166 H 0.67044 0.89379 0.42599
 C1167 C 0.84933 0.67929 -0.10539
 C1168 C 0.84598 0.66940 -0.14139
 C1169 C 0.86279 0.63283 -0.15281
 C1170 C 0.88368 0.60729 -0.13031
 C1171 C 0.88769 0.61633 -0.09494
 C1172 C 0.86771 0.65121 -0.08173
 C1173 C 0.83609 0.71660 -0.09220
 C1174 C 0.83584 0.72418 -0.05651
 C1175 C 0.84923 0.69497 -0.03323
 C1176 C 0.86525 0.65890 -0.04559
 H1177 H 0.82712 0.74075 -0.10910
 H1178 H 0.82494 0.75278 -0.04687
 H1179 H 0.84784 0.70051 -0.00548
 H1180 H 0.87449 0.63692 -0.02646
 H1181 H 0.86027 0.62374 -0.17979
 H1182 H 0.89782 0.58058 -0.14112
 C1183 C 0.32589 1.15576 0.39119
 C1184 C 0.34202 1.16335 0.35713
 C1185 C 0.38225 1.14953 0.34883
 C1186 C 0.40586 1.12782 0.37261
 C1187 C 0.39106 1.11986 0.40632
 C1188 C 0.35183 1.13650 0.41663
 C1189 C 0.28429 1.16568 0.40057
 C1190 C 0.27022 1.16123 0.43471
 C1191 C 0.29714 1.14697 0.46026
 C1192 C 0.33749 1.13475 0.45147
 H1193 H 0.26171 1.17598 0.38180
 H1194 H 0.23843 1.16935 0.44148
 H1195 H 0.28661 1.14494 0.48701
 H1196 H 0.35733 1.12531 0.47262
 H1197 H 0.39560 1.15508 0.32331
 H1198 H 0.43590 1.11642 0.36400
 C1199 C 1.18789 0.64430 0.11404
 C1200 C 1.17028 0.65531 0.14688
 C1201 C 1.12961 0.64239 0.15518
 C1202 C 1.10613 0.61997 0.13188
 C1203 C 1.12189 0.61038 0.09901
 C1204 C 1.16286 0.62262 0.08959
 C1205 C 1.23010 0.65259 0.10526
 C1206 C 1.24630 0.64221 0.07276
 C1207 C 1.22128 0.62254 0.04857
 C1208 C 1.18010 0.61235 0.05692
 H1209 H 1.25159 0.66592 0.12343
 H1210 H 1.27863 0.64905 0.06647
 H1211 H 1.23412 0.61441 0.02345
 H1212 H 1.16217 0.59593 0.03776
 H1213 H 1.11549 0.65003 0.17996
 H1214 H 1.07484 0.61060 0.13940
 C1215 C 0.61553 1.17198 0.63901
 C1216 C 0.65951 1.16750 0.64207
 C1217 C 0.68053 1.14083 0.62011
 C1218 C 0.65832 1.11634 0.59719
 C1219 C 0.61443 1.11803 0.59536
 C1220 C 0.59282 1.14756 0.61508
 C1221 C 0.59377 1.20092 0.65876
 C1222 C 0.55075 1.20615 0.65472
 C1223 C 0.52870 1.18314 0.63076
 C1224 C 0.54934 1.15419 0.61101
 H1225 H 0.60988 1.22032 0.67692
 H1226 H 0.53454 1.22867 0.66984
 H1227 H 0.49551 1.18818 0.62718
 H1228 H 0.53106 1.13812 0.59190
 H1229 H 0.71425 1.13753 0.62194
 H1230 H 0.67547 1.09446 0.58205
 C1231 C 0.84197 0.33140 0.10365
 C1232 C 0.84067 0.33999 0.14006
 C1233 C 0.85950 0.37566 0.15178
 C1234 C 0.88033 0.40137 0.12921
 C1235 C 0.88220 0.39356 0.09350
 C1236 C 0.86015 0.35988 0.08013
 C1237 C 0.82692 0.29498 0.08979
 C1238 C 0.82465 0.28887 0.05394
 C1239 C 0.83778 0.31865 0.03108
 C1240 C 0.85556 0.35376 0.04391
 H1241 H 0.81818 0.27028 0.10613
 H1242 H 0.81242 0.26093 0.04387
 H1243 H 0.83488 0.31424 0.00326
 H1244 H 0.86460 0.37628 0.02513
 H1245 H 0.85876 0.38384 0.17905
 H1246 H 0.89616 0.42717 0.14016
 C1247 C 0.32429 0.84367 0.60862
 C1248 C 0.33375 0.84382 0.64544
 C1249 C 0.36781 0.86789 0.65641
 C1250 C 0.39240 0.88939 0.63321
 C1251 C 0.38517 0.88822 0.59739
 C1252 C 0.35197 0.86386 0.58466
 C1253 C 0.28741 0.82610 0.59453
 C1254 C 0.28107 0.82365 0.55869
 C1255 C 0.31063 0.83900 0.53578
 C1256 C 0.34563 0.85905 0.54848
 H1257 H 0.26179 0.81551 0.61025
 H1258 H 0.25301 0.80966 0.54858
 H1259 H 0.30597 0.83611 0.50797
 H1260 H 0.36781 0.87008 0.52951
 H1261 H 0.37659 0.87017 0.68360
 H1262 H 0.41737 0.90773 0.64380
 C1263 C 0.31826 1.13949 -0.11966
 C1264 C 0.34172 1.16649 -0.14060
 C1265 C 0.38541 1.16690 -0.13821
 C1266 C 0.40621 1.14100 -0.11571
 C1267 C 0.38420 1.11337 -0.09502
 C1268 C 0.33952 1.11232 -0.09690
 C1269 C 0.27411 1.13752 -0.12221
 C1270 C 0.25122 1.10989 -0.10276
 C1271 C 0.27173 1.08302 -0.08107
 C1272 C 0.31529 1.08372 -0.07842
 H1273 H 0.25678 1.15682 -0.13954
 H1274 H 0.21741 1.10886 -0.10501
 H1275 H 0.25380 1.06102 -0.06657
 H1276 H 0.32899 1.06084 -0.06236
 H1277 H 0.40369 1.18705 -0.15442
 H1278 H 0.44013 1.14209 -0.11491
 C1279 C 0.87498 0.68891 0.37984
 C1280 C 0.84877 0.67072 0.35461
 C1281 C 0.84782 0.62890 0.35189
 C1282 C 0.87181 0.60488 0.37370
 C1283 C 0.89838 0.62171 0.39870
 C1284 C 0.90105 0.66437 0.40138
 C1285 C 0.87729 0.73100 0.38310
 C1286 C 0.90463 0.74870 0.40680
 C1287 C 0.93139 0.72513 0.42656
 C1288 C 0.93026 0.68357 0.42357
 H1289 H 0.85838 0.75070 0.36731
 H1290 H 0.90579 0.78091 0.40939
 H1291 H 0.95361 0.73917 0.44402
 H1292 H 0.95359 0.66746 0.43812
 H1293 H 0.82820 0.61458 0.33251
 H1294 H 0.86954 0.57264 0.37095
 C1295 C 0.60923 1.17164 0.14236
 C1296 C 0.65367 1.17160 0.14229
 C1297 C 0.67512 1.15033 0.11643
 C1298 C 0.65351 1.12634 0.09278
 C1299 C 0.60969 1.12347 0.09384
 C1300 C 0.58703 1.14832 0.11731
 C1301 C 0.58633 1.19493 0.16642
 C1302 C 0.54266 1.19546 0.16573
 C1303 C 0.52101 1.17410 0.14042
 C1304 C 0.54281 1.15112 0.11618
 H1305 H 0.60182 1.21332 0.18564
 H1306 H 0.52551 1.21306 0.18457
 H1307 H 0.48714 1.17563 0.13937
 H1308 H 0.52459 1.13661 0.09613
 H1309 H 0.70908 1.15051 0.11577
 H1310 H 0.67141 1.10818 0.07478
 C1311 C 1.12250 0.68455 0.62957
 C1312 C 1.15813 0.66753 0.64569
 C1313 C 1.16884 0.62770 0.63908
 C1314 C 1.14499 0.60452 0.61651
 C1315 C 1.10981 0.62054 0.59984
 C1316 C 1.09791 0.66092 0.60640
 C1317 C 1.10991 0.72410 0.63712
 C1318 C 1.07434 0.74045 0.62170
 C1319 C 1.04999 0.71743 0.59934
 C1320 C 1.06117 0.67793 0.59203
 H1321 H 1.12732 0.74262 0.65510
 H1322 H 1.06540 0.77097 0.62747
 H1323 H 1.02197 0.73009 0.58793
 H1324 H 1.04017 0.66107 0.57562
 H1325 H 1.19564 0.61428 0.65191
 H1326 H 1.15404 0.57366 0.61207
 C1327 C 0.61305 0.83102 -0.14041
 C1328 C 0.65708 0.83528 -0.14338
 C1329 C 0.67839 0.86097 -0.12069
 C1330 C 0.65651 0.88490 -0.09721
 C1331 C 0.61264 0.88355 -0.09546
 C1332 C 0.59067 0.85480 -0.11581
 C1333 C 0.59093 0.80285 -0.16074
 C1334 C 0.54783 0.79776 -0.15664
 C1335 C 0.52607 0.82025 -0.13212
 C1336 C 0.54714 0.84834 -0.11173
 H1337 H 0.60683 0.78393 -0.17939
 H1338 H 0.53132 0.77583 -0.17222
 H1339 H 0.49272 0.81564 -0.12862
 H1340 H 0.52913 0.86390 -0.09215
 H1341 H 0.71217 0.86395 -0.12234
 H1342 H 0.67395 0.90616 -0.08159
 C1343 C 1.12744 0.32157 0.36956
 C1344 C 1.16355 0.33911 0.35443
 C1345 C 1.17389 0.37888 0.36188
 C1346 C 1.14924 0.40144 0.38435
 C1347 C 1.11364 0.38484 0.40013
 C1348 C 1.10215 0.34453 0.39271
 C1349 C 1.11500 0.28219 0.36100
 C1350 C 1.07903 0.26532 0.37551
 C1351 C 1.05418 0.28764 0.39799
 C1352 C 1.06513 0.32697 0.40622
 H1353 H 1.13289 0.26413 0.34299
 H1354 H 1.07017 0.23492 0.36897
 H1355 H 1.02594 0.27458 0.40875
 H1356 H 1.04373 0.34330 0.42265
 H1357 H 1.20099 0.39274 0.34978
 H1358 H 1.15797 0.43228 0.38941
 C1359 C 0.33175 0.84036 0.10540
 C1360 C 0.34466 0.83573 0.14078
 C1361 C 0.38385 0.85123 0.15064
 C1362 C 0.40856 0.87286 0.12753
 C1363 C 0.39607 0.87888 0.09298
 C1364 C 0.35922 0.85934 0.08092
 C1365 C 0.29187 0.82800 0.09365
 C1366 C 0.28153 0.82906 0.05840
 C1367 C 0.31044 0.84293 0.03411
 C1368 C 0.34883 0.85818 0.04516
 H1369 H 0.26778 0.81865 0.11135
 H1370 H 0.25104 0.81873 0.04987
 H1371 H 0.30283 0.84249 0.00664
 H1372 H 0.37053 0.86788 0.02527
 H1373 H 0.39531 0.84756 0.17701
 H1374 H 0.43718 0.88620 0.13736
 C1375 C 0.88296 0.32077 0.63052
 C1376 C 0.84505 0.33666 0.64362
 C1377 C 0.83289 0.37555 0.63467
 C1378 C 0.85769 0.39894 0.61281
 C1379 C 0.89509 0.38391 0.59907
 C1380 C 0.90822 0.34446 0.60782
 C1381 C 0.89695 0.28232 0.64047
 C1382 C 0.93451 0.26703 0.62764
 C1383 C 0.95930 0.29006 0.60548
 C1384 C 0.94670 0.32854 0.59592
 H1385 H 0.87891 0.26370 0.65808
 H1386 H 0.94457 0.23729 0.63516
 H1387 H 0.98874 0.27825 0.59598
 H1388 H 0.96784 0.34561 0.57966
 H1389 H 0.80436 0.38820 0.64530
 H1390 H 0.84766 0.42912 0.60661
 C1391 C 1.18208 1.16405 0.60561
 C1392 C 1.16891 1.16796 0.64113
 C1393 C 1.13110 1.14986 0.65130
 C1394 C 1.10759 1.12704 0.62846
 C1395 C 1.11998 1.12170 0.59384
 C1396 C 1.15620 1.14237 0.58155
 C1397 C 1.22048 1.18002 0.59317
 C1398 C 1.23144 1.17760 0.55812
 C1399 C 1.20445 1.15976 0.53447
 C1400 C 1.16721 1.14243 0.54590
 H1401 H 1.24336 1.19371 0.60984
 H1402 H 1.26084 1.19021 0.54919
 H1403 H 1.21243 1.15920 0.50708
 H1404 H 1.14692 1.13023 0.52618
 H1405 H 1.11949 1.15270 0.67770
 H1406 H 1.07974 1.11249 0.63858
 C1407 C 0.64498 0.67963 0.11347
 C1408 C 0.66405 0.66245 0.14348
 C1409 C 0.66053 0.62115 0.14941
 C1410 C 0.63855 0.59683 0.12660
 C1411 C 0.61990 0.61286 0.09685
 C1412 C 0.62331 0.65429 0.08962
 C1413 C 0.64516 0.72137 0.10725
 C1414 C 0.62600 0.73742 0.07772
 C1415 C 0.60596 0.71243 0.05400
 C1416 C 0.60435 0.67123 0.05985
 H1417 H 0.65913 0.74219 0.12525
 H1418 H 0.62644 0.76948 0.07338
 H1419 H 0.59106 0.72512 0.03121
 H1420 H 0.58785 0.65285 0.04111
 H1421 H 0.67476 0.60754 0.17215
 H1422 H 0.63588 0.56510 0.13231
 C1423 C 1.18067 0.84228 0.39504
 C1424 C 1.16620 0.83744 0.35997
 C1425 C 1.12772 0.85456 0.35060
 C1426 C 1.10464 0.87725 0.37384
 C1427 C 1.11823 0.88349 0.40807
 C1428 C 1.15536 0.86379 0.41959
 C1429 C 1.21991 0.82740 0.40651
 C1430 C 1.23243 0.83082 0.44110
 C1431 C 1.20624 0.84862 0.46531
 C1432 C 1.16802 0.86467 0.45487
 H1433 H 1.24239 0.81400 0.38937
 H1434 H 1.26252 0.81914 0.44921
 H1435 H 1.21561 0.85011 0.49237
 H1436 H 1.14840 0.87650 0.47517
 H1437 H 1.11526 0.85098 0.32456
 H1438 H 1.07612 0.89097 0.36432
 C1439 C 0.63737 0.32321 -0.11697
 C1440 C 0.65948 0.34112 -0.14514
 C1441 C 0.65949 0.38281 -0.14904
 C1442 C 0.63805 0.40694 -0.12579
 C1443 C 0.61610 0.39012 -0.09792
 C1444 C 0.61559 0.34817 -0.09300
 C1445 C 0.63491 0.28124 -0.11276
 C1446 C 0.61232 0.26443 -0.08523
 C1447 C 0.59149 0.28894 -0.06160
 C1448 C 0.59291 0.33047 -0.06539
 H1449 H 0.64977 0.26101 -0.13080
 H1450 H 0.61078 0.23221 -0.08230
 H1451 H 0.57390 0.27569 -0.04038
 H1452 H 0.57597 0.34856 -0.04673
 H1453 H 0.67617 0.39684 -0.17045
 H1454 H 0.63825 0.43911 -0.12977
 C1455 C 0.83450 1.16320 0.39176
 C1456 C 0.84380 1.16266 0.35519
 C1457 C 0.87879 1.14074 0.34386
 C1458 C 0.90324 1.11883 0.36681
 C1459 C 0.89474 1.11837 0.40251
 C1460 C 0.86169 1.14265 0.41554
 C1461 C 0.79868 1.18254 0.40570
 C1462 C 0.79190 1.18462 0.44147
 C1463 C 0.82046 1.16783 0.46440
 C1464 C 0.85513 1.14729 0.45173
 H1465 H 0.77428 1.19512 0.38992
 H1466 H 0.76434 1.19960 0.45147
 H1467 H 0.81543 1.17033 0.49218
 H1468 H 0.87701 1.13602 0.47074
 H1469 H 0.88740 1.13991 0.31658
 H1470 H 0.92859 1.10113 0.35613
 C1471 C 0.33017 0.66164 -0.10678
 C1472 C 0.34386 0.66653 -0.14201
 C1473 C 0.38305 0.65115 -0.15167
 C1474 C 0.40754 0.62986 -0.12837
 C1475 C 0.39473 0.62397 -0.09387
 C1476 C 0.35734 0.64277 -0.08211
 C1477 C 0.29001 0.67387 -0.09528
 C1478 C 0.27900 0.67216 -0.06018
 C1479 C 0.30747 0.65811 -0.03574
 C1480 C 0.34619 0.64344 -0.04647
 H1481 H 0.26606 0.68395 -0.11285
 H1482 H 0.24833 0.68220 -0.05189
 H1483 H 0.29931 0.65807 -0.00836
 H1484 H 0.36750 0.63382 -0.02638
 H1485 H 0.39487 0.65490 -0.17793
 H1486 H 0.43638 0.61684 -0.13799
 C1487 C 0.89256 0.83811 0.64360
 C1488 C 0.84826 0.84146 0.64453
 C1489 C 0.82776 0.86543 0.62001
 C1490 C 0.85058 0.88865 0.59650
 C1491 C 0.89453 0.88809 0.59659
 C1492 C 0.91585 0.86091 0.61887
 C1493 C 0.91414 0.81153 0.66595
 C1494 C 0.95750 0.80718 0.66374
 C1495 C 0.98015 0.82871 0.63903
 C1496 C 0.95967 0.85501 0.61656
 H1497 H 0.89771 0.79306 0.68463
 H1498 H 0.97352 0.78646 0.68086
 H1499 H 1.01372 0.82474 0.63699
 H1500 H 0.97845 0.86953 0.59680
 H1501 H 0.79391 0.86770 0.62019
 H1502 H 0.83373 0.90876 0.57934
 C1503 C 0.32473 0.37946 0.13262
 C1504 C 0.34342 0.34282 0.14274
 C1505 C 0.38198 0.33141 0.12873
 C1506 C 0.40273 0.35624 0.10523
 C1507 C 0.38512 0.39272 0.09482
 C1508 C 0.34555 0.40460 0.10815
 C1509 C 0.28622 0.39210 0.14705
 C1510 C 0.26812 0.42826 0.13696
 C1511 C 0.28842 0.45291 0.11304
 C1512 C 0.32695 0.44158 0.09900
 H1513 H 0.26969 0.37409 0.16607
 H1514 H 0.23833 0.43729 0.14793
 H1515 H 0.27444 0.48117 0.10557
 H1516 H 0.34185 0.46229 0.08125
 H1517 H 0.39658 0.30358 0.13672
 H1518 H 0.43313 0.34722 0.09540
   
