data_POSCAR
  _audit_creation_date              2014-09-24
  _audit_creation_method            'ToBaCCo'
  _symmetry_space_group_name_H-M    'P1'
  _symmetry_Int_Tables_number       1
  _symmetry_cell_setting            triclinic
  loop_
  _symmetry_equiv_pos_as_xyz
 x,y,z
_cell_length_a 30.5336
_cell_length_b 39.4060
_cell_length_c 40.3786
_cell_angle_alpha 89.665500
_cell_angle_beta 89.784700
_cell_angle_gamma 89.882000
loop_
  _atom_site_label
  _atom_site_type_symbol
  _atom_site_fract_x
  _atom_site_fract_y
  _atom_site_fract_z
B1 B 0.27108 0.23982 0.28329
 B2 B 0.21848 0.23583 0.27186
 B3 B 0.23874 0.27432 0.28125
 B4 B 0.29099 0.27663 0.26758
 B5 B 0.30255 0.23889 0.24910
 B6 B 0.25753 0.21346 0.25203
 B7 B 0.23565 0.26905 0.21482
 B8 B 0.28831 0.27304 0.22620
 B9 B 0.26803 0.23459 0.21680
 B10 B 0.21580 0.23224 0.23052
 B11 B 0.20425 0.26995 0.24900
 B12 B 0.24928 0.29542 0.24602
 B13 B 0.73306 0.76893 0.21645
 B14 B 0.71136 0.73089 0.22667
 B15 B 0.76490 0.73414 0.21716
 B16 B 0.78422 0.77129 0.23196
 B17 B 0.74121 0.79114 0.25087
 B18 B 0.69590 0.76586 0.24752
 B19 B 0.75688 0.73166 0.28384
 B20 B 0.77809 0.76945 0.27330
 B21 B 0.72423 0.76627 0.28275
 B22 B 0.70557 0.72871 0.26824
 B23 B 0.74853 0.70906 0.24897
 B24 B 0.79360 0.73425 0.25258
 B25 B 0.73821 0.23548 -0.21550
 B26 B 0.72598 0.27506 -0.22774
 B27 B 0.77808 0.26517 -0.21780
 B28 B 0.78813 0.22516 -0.23033
 B29 B 0.74174 0.21080 -0.24918
 B30 B 0.70321 0.24172 -0.24717
 B31 B 0.77120 0.26523 -0.28462
 B32 B 0.78357 0.22546 -0.27215
 B33 B 0.73150 0.23570 -0.28208
 B34 B 0.72131 0.27588 -0.26924
 B35 B 0.76773 0.29026 -0.25102
 B36 B 0.80674 0.25883 -0.25297
 B37 B 0.25576 0.77921 -0.21936
 B38 B 0.27336 0.73857 -0.22136
 B39 B 0.21948 0.74680 -0.21714
 B40 B 0.20721 0.78239 -0.23906
 B41 B 0.25476 0.79577 -0.25745
 B42 B 0.29593 0.76849 -0.24633
 B43 B 0.23548 0.73288 -0.28132
 B44 B 0.21781 0.77331 -0.27890
 B45 B 0.27154 0.76509 -0.28351
 B46 B 0.28406 0.72951 -0.26159
 B47 B 0.23673 0.71611 -0.24319
 B48 B 0.19551 0.74334 -0.25419
 B49 B 1.23009 1.26621 0.72001
 B50 B 1.21272 1.22750 0.73278
 B51 B 1.26494 1.23286 0.72019
 B52 B 1.28253 1.27159 0.73265
 B53 B 1.23991 1.29020 0.75343
 B54 B 1.19631 1.26275 0.75314
 B55 B 1.26322 1.23252 0.78694
 B56 B 1.28083 1.27089 0.77431
 B57 B 1.22858 1.26581 0.78683
 B58 B 1.21114 1.22728 0.77449
 B59 B 1.25392 1.20875 0.75375
 B60 B 1.29699 1.23588 0.75376
 B61 B 0.76412 0.73339 0.78250
 B62 B 0.71240 0.73793 0.76862
 B63 B 0.73818 0.77134 0.78454
 B64 B 0.79167 0.76999 0.77373
 B65 B 0.79868 0.73459 0.75031
 B66 B 0.74920 0.71434 0.74712
 B67 B 0.74115 0.77627 0.71780
 B68 B 0.79269 0.77309 0.73204
 B69 B 0.76738 0.73881 0.71616
 B70 B 0.71385 0.74039 0.72687
 B71 B 0.70679 0.77574 0.75031
 B72 B 0.75563 0.79614 0.75328
 B73 B 1.25379 0.72614 0.28560
 B74 B 1.23449 0.76604 0.28152
 B75 B 1.28885 0.75940 0.28375
 B76 B 1.30118 0.72292 0.26394
 B77 B 1.25315 0.70725 0.24888
 B78 B 1.21150 0.73426 0.25979
 B79 B 1.26794 0.76871 0.21938
 B80 B 1.28734 0.72913 0.22415
 B81 B 1.23278 0.73581 0.22155
 B82 B 1.22063 0.77254 0.24122
 B83 B 1.26837 0.78798 0.25650
 B84 B 1.30995 0.76125 0.24550
 B85 B 0.76012 1.27574 0.28306
 B86 B 0.76835 1.23397 0.27668
 B87 B 0.71697 1.24822 0.28291
 B88 B 0.71164 1.28690 0.26505
 B89 B 0.76049 1.29644 0.24649
 B90 B 0.79616 1.26356 0.25369
 B91 B 0.72903 1.23877 0.21755
 B92 B 0.71869 1.28045 0.22401
 B93 B 0.77017 1.26699 0.21727
 B94 B 0.77670 1.22818 0.23570
 B95 B 0.72775 1.21852 0.25377
 B96 B 0.69186 1.25099 0.24639
 N97 N 0.57737 1.04159 0.03380
 N98 N 0.60630 1.06566 0.03827
 N99 N 0.55470 0.96940 0.05898
 N100 N 0.56518 0.94482 0.07993
 N101 N 0.58356 0.97108 0.03484
 N102 N 0.61430 0.94801 0.03860
 N103 N 0.54888 1.04074 0.05819
 N104 N 0.55795 1.06454 0.08013
 C105 C 0.59374 1.08005 0.06696
 C106 C 0.60245 0.93170 0.06665
 N107 N 0.43042 0.96304 0.03794
 N108 N 0.40398 0.93720 0.04287
 N109 N 0.45428 1.03626 0.06018
 N110 N 0.44447 1.06099 0.08101
 N111 N 0.42428 1.03400 0.03715
 N112 N 0.39345 1.05685 0.04148
 N113 N 0.45980 0.96493 0.06148
 N114 N 0.45348 0.94053 0.08366
 Mn115 Mn 0.50446 1.00283 0.06032
 C116 C 0.41873 0.92331 0.07131
 C117 C 0.40636 1.07366 0.06874
 N118 N 0.58177 0.97011 -0.03569
 N119 N 0.61165 0.94630 -0.03920
 N120 N 0.54560 1.03928 -0.05978
 N121 N 0.54926 1.06521 -0.08053
 N122 N 0.57523 1.04128 -0.03645
 N123 N 0.59930 1.06875 -0.04015
 N124 N 0.55157 0.96772 -0.05858
 N125 N 0.56039 0.94200 -0.07852
 Mn126 Mn 0.57975 1.00603 -0.00092
 C127 C 0.59808 0.92885 -0.06591
 C128 C 0.58274 1.08341 -0.06766
 N129 N 0.42240 1.03327 -0.03334
 N130 N 0.39203 1.05665 -0.03682
 N131 N 0.45641 0.96363 -0.05696
 N132 N 0.44325 0.94390 -0.08140
 N133 N 0.42792 0.96267 -0.03249
 N134 N 0.39508 0.94254 -0.03956
 N135 N 0.45111 1.03488 -0.05756
 N136 N 0.44087 1.05972 -0.07833
 Mn137 Mn 0.42612 0.99822 0.00236
 Mn138 Mn 0.50124 1.00131 -0.05879
 Cl139 Cl 0.50287 1.00201 0.00073
 C140 C 0.40388 1.07308 -0.06483
 C141 C 0.40531 0.93050 -0.06971
 N142 N 1.07525 0.53557 0.53779
 N143 N 1.10764 0.55636 0.54404
 N144 N 1.04228 0.46506 0.56112
 N145 N 1.05104 0.44098 0.58330
 N146 N 1.07189 0.46485 0.53752
 N147 N 1.10114 0.44102 0.54268
 N148 N 1.04540 0.53670 0.56123
 N149 N 1.05715 0.55860 0.58436
 C150 C 1.09601 0.57086 0.57285
 C151 C 1.08792 0.42604 0.57103
 N152 N 0.91871 0.46851 0.53467
 N153 N 0.89073 0.44325 0.53751
 N154 N 0.94984 0.53929 0.55913
 N155 N 0.94153 0.56441 0.57992
 N156 N 0.92122 0.53954 0.53494
 N157 N 0.89315 0.56459 0.53834
 N158 N 0.94737 0.46768 0.55887
 N159 N 0.93952 0.44170 0.57885
 Mn160 Mn 0.99609 0.50226 0.56073
 C161 C 0.90405 0.42670 0.56514
 C162 C 0.90606 0.58006 0.56630
 N163 N 1.07487 0.46547 0.46740
 N164 N 1.10500 0.44220 0.46258
 N165 N 1.05000 0.53783 0.44326
 N166 N 1.06432 0.55854 0.41968
 N167 N 1.07850 0.53617 0.46748
 N168 N 1.11277 0.55528 0.46107
 N169 N 1.04695 0.46632 0.44283
 N170 N 1.05766 0.44334 0.42036
 Mn171 Mn 1.07508 0.50052 0.50260
 C172 C 1.09386 0.42828 0.43343
 C173 C 1.10325 0.56957 0.43160
 N174 N 0.92446 0.54079 0.46449
 N175 N 0.89738 0.56640 0.45987
 N176 N 0.95230 0.46923 0.44104
 N177 N 0.94500 0.44526 0.41917
 N178 N 0.92081 0.46998 0.46325
 N179 N 0.89074 0.44693 0.45680
 N180 N 0.95490 0.54024 0.44142
 N181 N 0.94875 0.56522 0.41994
 Mn182 Mn 0.92092 0.50463 0.49940
 Mn183 Mn 1.00098 0.50343 0.44166
 Cl184 Cl 0.99821 0.50273 0.50109
 C185 C 0.91302 0.58140 0.43216
 C186 C 0.90639 0.43184 0.42923
 N187 N 1.07503 0.54415 0.03791
 N188 N 1.09864 0.57172 0.04287
 N189 N 1.05432 0.46942 0.05905
 N190 N 1.06319 0.44322 0.07846
 N191 N 1.08444 0.47272 0.03594
 N192 N 1.11441 0.44873 0.03890
 N193 N 1.04557 0.54045 0.06146
 N194 N 1.04889 0.56508 0.08338
 C195 C 1.08189 0.58450 0.07129
 C196 C 1.10080 0.43052 0.06554
 N197 N 0.93055 0.46121 0.03554
 N198 N 0.90481 0.43474 0.03938
 N199 N 0.95125 0.53363 0.06110
 N200 N 0.94200 0.55838 0.08201
 N201 N 0.92181 0.53233 0.03751
 N202 N 0.89195 0.55616 0.04163
 N203 N 0.95991 0.46229 0.05916
 N204 N 0.95451 0.43648 0.07999
 Mn205 Mn 1.00281 0.50139 0.06064
 C206 C 0.92007 0.41934 0.06704
 C207 C 0.90481 0.57224 0.06949
 N208 N 1.08479 0.47507 -0.03538
 N209 N 1.11429 0.45089 -0.03928
 N210 N 1.04631 0.54447 -0.05702
 N211 N 1.05015 0.57036 -0.07776
 N212 N 1.07556 0.54649 -0.03337
 N213 N 1.09970 0.57403 -0.03712
 N214 N 1.05485 0.47332 -0.05859
 N215 N 1.06337 0.44799 -0.07899
 Mn216 Mn 1.08048 0.50969 0.00128
 C217 C 1.10068 0.43422 -0.06663
 C218 C 1.08344 0.58869 -0.06491
 N219 N 0.92222 0.53460 -0.03371
 N220 N 0.89004 0.55636 -0.03859
 N221 N 0.96028 0.46660 -0.05914
 N222 N 0.95600 0.44210 -0.08118
 N223 N 0.93096 0.46325 -0.03548
 N224 N 0.90658 0.43610 -0.04038
 N225 N 0.95245 0.53807 -0.05667
 N226 N 0.94180 0.56263 -0.07762
 Mn227 Mn 0.92600 0.49783 0.00097
 Mn228 Mn 1.00349 0.50560 -0.05828
 Cl229 Cl 1.00322 0.50359 0.00116
 C230 C 0.90304 0.57413 -0.06564
 C231 C 0.92249 0.42314 -0.06898
 N232 N 0.57264 1.04280 0.53597
 N233 N 0.59797 1.06911 0.54228
 N234 N 0.55102 0.96859 0.55568
 N235 N 0.56220 0.94410 0.57650
 N236 N 0.58086 0.97202 0.53237
 N237 N 0.61288 0.94997 0.53659
 N238 N 0.54203 1.03967 0.55876
 N239 N 0.54531 1.06404 0.58091
 C240 C 0.58031 1.08211 0.57027
 C241 C 0.60075 0.93256 0.56406
 N242 N 0.42657 0.96098 0.53266
 N243 N 0.40045 0.93466 0.53668
 N244 N 0.44788 1.03297 0.55914
 N245 N 0.43852 1.05690 0.58092
 N246 N 0.41818 1.03220 0.53573
 N247 N 0.38803 1.05563 0.54081
 N248 N 0.45628 0.96170 0.55608
 N249 N 0.45073 0.93594 0.57691
 Mn250 Mn 0.49935 1.00067 0.55783
 C251 C 0.41590 0.91907 0.56424
 C252 C 0.40103 1.07089 0.56909
 N253 N 0.58056 0.97510 0.46122
 N254 N 0.60805 0.94937 0.45754
 N255 N 0.54249 1.04577 0.44105
 N256 N 0.54565 1.07235 0.42111
 N257 N 0.57213 1.04718 0.46448
 N258 N 0.59574 1.07517 0.46145
 N259 N 0.55076 0.97477 0.43785
 N260 N 0.55771 0.94938 0.41728
 Mn261 Mn 0.57707 1.00935 0.49844
 C262 C 0.59362 0.93384 0.42978
 C263 C 0.57879 1.09061 0.43424
 N264 N 0.41840 1.03595 0.46443
 N265 N 0.38837 1.05992 0.46134
 N266 N 0.45658 0.96815 0.43804
 N267 N 0.45447 0.94275 0.41689
 N268 N 0.42715 0.96446 0.46159
 N269 N 0.40484 0.93614 0.45749
 N270 N 0.44847 1.03916 0.44129
 N271 N 0.43959 1.06523 0.42176
 Mn272 Mn 0.42211 0.99839 0.49857
 Mn273 Mn 0.49958 1.00699 0.43920
 Cl274 Cl 0.49953 1.00385 0.49858
 C275 C 0.40203 1.07802 0.43459
 C276 C 0.42208 0.92298 0.42942
 N277 N 1.07375 1.04499 0.52955
 N278 N 1.10364 1.06721 0.53919
 N279 N 1.05322 0.97288 0.55512
 N280 N 1.05877 0.94679 0.57511
 N281 N 1.08391 0.97376 0.53230
 N282 N 1.11157 0.94810 0.53640
 N283 N 1.04164 1.04372 0.55123
 N284 N 1.04831 1.06530 0.57537
 C285 C 1.08631 1.08058 0.56731
 C286 C 1.09542 0.93184 0.56356
 N287 N 0.92957 0.95940 0.53483
 N288 N 0.90647 0.93208 0.54274
 N289 N 0.94950 1.03483 0.55257
 N290 N 0.93846 1.05653 0.57571
 N291 N 0.91720 1.03036 0.53169
 N292 N 0.88281 1.04881 0.54073
 N293 N 0.96087 0.96411 0.55650
 N294 N 0.96042 0.94021 0.57939
 Mn295 Mn 1.00131 1.00395 0.55391
 C296 C 0.92667 0.92035 0.57048
 C297 C 0.89735 1.06581 0.56776
 N298 N 1.08277 0.97106 0.46068
 N299 N 1.11406 0.94839 0.45586
 N300 N 1.03986 1.03848 0.43594
 N301 N 1.03953 1.06383 0.41461
 N302 N 1.07168 1.04197 0.45752
 N303 N 1.09443 1.06974 0.45097
 N304 N 1.05235 0.96818 0.43800
 N305 N 1.06228 0.94395 0.41688
 Mn306 Mn 1.07874 1.00797 0.49494
 C307 C 1.10073 0.93178 0.42836
 C308 C 1.07357 1.08307 0.42430
 N309 N 0.91664 1.02697 0.45981
 N310 N 0.88418 1.04808 0.45323
 N311 N 0.95954 0.95843 0.44005
 N312 N 0.95757 0.93279 0.41941
 N313 N 0.92854 0.95630 0.46265
 N314 N 0.90394 0.92924 0.45743
 N315 N 0.94660 1.02860 0.43644
 N316 N 0.93509 1.05039 0.41310
 Mn317 Mn 0.92228 0.99315 0.49723
 Mn318 Mn 0.99962 0.99847 0.43735
 Cl319 Cl 1.00044 1.00091 0.49582
 C320 C 0.89619 1.06241 0.42396
 C321 C 0.92307 0.91473 0.43062
 N322 N 0.57618 0.55043 0.02333
 N323 N 0.60190 0.57708 0.02799
 N324 N 0.56007 0.47815 0.05143
 N325 N 0.56975 0.45413 0.07292
 N326 N 0.58894 0.47923 0.02723
 N327 N 0.61912 0.45530 0.03174
 N328 N 0.54720 0.54820 0.04738
 N329 N 0.55174 0.57314 0.06854
 C330 C 0.58552 0.59108 0.05616
 C331 C 0.60683 0.44032 0.06082
 N332 N 0.43346 0.46439 0.03767
 N333 N 0.41087 0.43722 0.04653
 N334 N 0.45525 0.53898 0.05354
 N335 N 0.45047 0.56630 0.07171
 N336 N 0.42181 0.53512 0.03360
 N337 N 0.39279 0.55972 0.03811
 N338 N 0.46734 0.46837 0.05722
 N339 N 0.46925 0.44387 0.07948
 Mn340 Mn 0.50742 0.50836 0.05256
 C341 C 0.43402 0.42465 0.07245
 C342 C 0.41146 0.57882 0.06206
 N343 N 0.58112 0.47479 -0.04456
 N344 N 0.61128 0.45116 -0.05003
 N345 N 0.53378 0.53966 -0.06849
 N346 N 0.53094 0.56201 -0.09243
 N347 N 0.56735 0.54587 -0.04921
 N348 N 0.58857 0.57321 -0.06022
 N349 N 0.54714 0.46996 -0.06378
 N350 N 0.55281 0.44321 -0.08251
 Mn351 Mn 0.57935 0.51279 -0.01090
 C352 C 0.59277 0.43179 -0.07392
 C353 C 0.56483 0.58294 -0.08731
 N354 N 0.41424 0.53051 -0.03771
 N355 N 0.38414 0.55433 -0.04203
 N356 N 0.45504 0.46034 -0.05730
 N357 N 0.45070 0.43475 -0.07772
 N358 N 0.42530 0.45930 -0.03378
 N359 N 0.39927 0.43276 -0.03793
 N360 N 0.44180 0.53037 -0.06270
 N361 N 0.43090 0.55344 -0.08496
 Mn362 Mn 0.42296 0.49732 0.00004
 Mn363 Mn 0.49457 0.49999 -0.06313
 Cl364 Cl 0.50117 0.50462 -0.00533
 C365 C 0.39487 0.56813 -0.07188
 C366 C 0.41621 0.41762 -0.06532
 C367 C 0.33515 1.17633 0.15804
 C368 C 0.30536 1.17074 0.13329
 C369 C 0.26353 1.18463 0.13345
 C370 C 0.25195 1.20528 0.16022
 C371 C 0.28257 1.21258 0.18564
 C372 C 0.32468 1.19733 0.18450
 O373 O 0.37197 1.15872 0.15441
 C374 C 0.36527 1.14168 0.12666
 C375 C 0.32509 1.14837 0.11271
 C376 C 0.31053 1.13262 0.08419
 C377 C 0.33836 1.10873 0.06956
 C378 C 0.37966 1.10073 0.08378
 C379 C 0.39350 1.11777 0.11261
 H380 H 0.24022 1.17902 0.11412
 H381 H 0.21897 1.21535 0.16115
 H382 H 0.34829 1.20052 0.20410
 H383 H 0.27866 1.13819 0.07382
 H384 H 0.32719 1.09598 0.04747
 H385 H 0.42463 1.11206 0.12414
 C386 C 0.83424 0.68056 0.65728
 C387 C 0.80923 0.68109 0.62915
 C388 C 0.77034 0.69949 0.62684
 C389 C 0.75704 0.71829 0.65465
 C390 C 0.78321 0.71916 0.68365
 C391 C 0.82195 0.69916 0.68480
 O392 O 0.86834 0.65973 0.65559
 C393 C 0.86497 0.64671 0.62556
 C394 C 0.82945 0.65904 0.60829
 C395 C 0.81873 0.64777 0.57687
 C396 C 0.84531 0.62252 0.56293
 C397 C 0.88160 0.60884 0.58059
 C398 C 0.89189 0.62157 0.61220
 H399 H 0.75039 0.69870 0.60477
 H400 H 0.72612 0.73171 0.65366
 H401 H 0.84179 0.69691 0.70681
 H402 H 0.79050 0.65760 0.56379
 H403 H 0.83693 0.61312 0.53862
 H404 H 0.91896 0.61143 0.62643
 C405 C 0.67043 0.82825 0.15618
 C406 C 0.70085 0.83317 0.13151
 C407 C 0.74223 0.81841 0.13221
 C408 C 0.75240 0.79750 0.15938
 C409 C 0.72079 0.79086 0.18455
 C410 C 0.67959 0.80738 0.18296
 O411 O 0.63427 0.84644 0.15232
 C412 C 0.64189 0.86325 0.12445
 C413 C 0.68208 0.85594 0.11062
 C414 C 0.69733 0.87165 0.08197
 C415 C 0.67014 0.89604 0.06719
 C416 C 0.62892 0.90445 0.08145
 C417 C 0.61447 0.88751 0.11032
 H418 H 0.76620 0.82352 0.11302
 H419 H 0.78499 0.78676 0.16088
 H420 H 0.65550 0.80542 0.20255
 H421 H 0.72916 0.86567 0.07165
 H422 H 0.68168 0.90885 0.04503
 H423 H 0.58336 0.89353 0.12186
 C424 C 1.15980 0.32216 0.66059
 C425 C 1.19010 0.32967 0.63647
 C426 C 1.23267 0.31728 0.63682
 C427 C 1.24477 0.29635 0.66335
 C428 C 1.21395 0.28697 0.68823
 C429 C 1.17069 0.30036 0.68666
 O430 O 1.12226 0.33897 0.65686
 C431 C 1.12912 0.35742 0.62966
 C432 C 1.17007 0.35224 0.61623
 C433 C 1.18512 0.36923 0.58837
 C434 C 1.15695 0.39276 0.57366
 C435 C 1.11470 0.39943 0.58716
 C436 C 1.10042 0.38128 0.61559
 H437 H 1.25621 0.32445 0.61796
 H438 H 1.27839 0.28765 0.66450
 H439 H 1.14657 0.29504 0.70568
 H440 H 1.21759 0.36477 0.57845
 H441 H 1.16871 0.40629 0.55199
 H442 H 1.06855 0.38588 0.62653
 C443 C 0.67507 1.17176 -0.15943
 C444 C 0.67205 1.18871 -0.12993
 C445 C 0.69073 1.22054 -0.12532
 C446 C 0.71287 1.23547 -0.15238
 C447 C 0.71726 1.21805 -0.18299
 C448 C 0.69794 1.18545 -0.18594
 O449 O 0.65428 1.14232 -0.15955
 C450 C 0.63783 1.14032 -0.12928
 C451 C 0.64803 1.16785 -0.10990
 C452 C 0.63583 1.16982 -0.07672
 C453 C 0.61307 1.14205 -0.06302
 C454 C 0.60195 1.11378 -0.08288
 C455 C 0.61391 1.11318 -0.11656
 H456 H 0.68734 1.23383 -0.10207
 H457 H 0.72527 1.26093 -0.14959
 H458 H 0.69902 1.17097 -0.20858
 H459 H 0.64467 1.19140 -0.06171
 H460 H 0.60451 1.14230 -0.03697
 H461 H 0.60691 1.09142 -0.13191
 C462 C 1.18815 0.67159 0.34841
 C463 C 1.21993 0.65020 0.36045
 C464 C 1.26372 0.65271 0.35114
 C465 C 1.27501 0.67799 0.32799
 C466 C 1.24292 0.70092 0.31562
 C467 C 1.19884 0.69749 0.32648
 O468 O 1.14804 0.66365 0.35846
 C469 C 1.15456 0.63661 0.37744
 C470 C 1.19805 0.62755 0.37976
 C471 C 1.21230 0.59997 0.39838
 C472 C 1.18044 0.58117 0.41548
 C473 C 1.13537 0.58970 0.41294
 C474 C 1.12218 0.61769 0.39349
 H475 H 1.28801 0.63505 0.36040
 H476 H 1.30857 0.67922 0.31935
 H477 H 1.17289 0.71367 0.31722
 H478 H 1.24664 0.59330 0.39985
 H479 H 1.19079 0.55967 0.43036
 H480 H 1.08802 0.62480 0.39140
 C481 C 0.32314 0.83744 -0.16195
 C482 C 0.29067 0.85522 -0.14606
 C483 C 0.24641 0.85032 -0.15232
 C484 C 0.23519 0.82588 -0.17592
 C485 C 0.26807 0.80607 -0.19167
 C486 C 0.31280 0.81265 -0.18479
 O487 O 0.36321 0.84635 -0.15303
 C488 C 0.35593 0.87025 -0.13076
 C489 C 0.31205 0.87640 -0.12542
 C490 C 0.29689 0.89965 -0.10239
 C491 C 0.32829 0.91716 -0.08405
 C492 C 0.37371 0.91157 -0.08951
 C493 C 0.38778 0.88798 -0.11338
 H494 H 0.22146 0.86502 -0.13978
 H495 H 0.20089 0.82211 -0.18146
 H496 H 0.33915 0.79875 -0.19652
 H497 H 0.26223 0.90388 -0.09845
 H498 H 0.31720 0.93536 -0.06584
 H499 H 0.42224 0.88310 -0.11771
 C500 C 0.79823 0.33873 0.35312
 C501 C 0.83764 0.32387 0.36103
 C502 C 0.85352 0.29519 0.34601
 C503 C 0.82801 0.28087 0.32164
 C504 C 0.78545 0.29372 0.31338
 C505 C 0.77061 0.32372 0.32939
 O506 O 0.79308 0.36874 0.36778
 C507 C 0.83016 0.37240 0.38487
 C508 C 0.85812 0.34531 0.38146
 C509 C 0.90043 0.34449 0.39390
 C510 C 0.91517 0.37316 0.41043
 C511 C 0.88748 0.40158 0.41439
 C512 C 0.84400 0.40122 0.40209
 H513 H 0.88567 0.28510 0.35159
 H514 H 0.84279 0.25969 0.30894
 H515 H 0.73995 0.33562 0.32257
 H516 H 0.92193 0.32300 0.38997
 H517 H 0.94845 0.37355 0.41964
 H518 H 0.82294 0.42325 0.40412
 C519 C 1.16621 0.32490 0.15480
 C520 C 1.19088 0.32389 0.12631
 C521 C 1.22815 0.30384 0.12335
 C522 C 1.24102 0.28468 0.15110
 C523 C 1.21688 0.28588 0.18131
 C524 C 1.17819 0.30592 0.18254
 O525 O 1.13366 0.34723 0.15342
 C526 C 1.13798 0.36077 0.12344
 C527 C 1.17254 0.34743 0.10581
 C528 C 1.18467 0.35960 0.07469
 C529 C 1.16032 0.38667 0.06133
 C530 C 1.12464 0.40093 0.07915
 C531 C 1.11311 0.38743 0.11051
 H532 H 1.24766 0.30396 0.10092
 H533 H 1.27140 0.27070 0.14941
 H534 H 1.15898 0.30841 0.20496
 H535 H 1.21242 0.34909 0.06147
 H536 H 1.16959 0.39674 0.03730
 H537 H 1.08654 0.39809 0.12495
 C538 C 0.67672 0.83695 0.65893
 C539 C 0.70272 0.83707 0.63111
 C540 C 0.74120 0.81833 0.62892
 C541 C 0.75326 0.79864 0.65652
 C542 C 0.72718 0.79815 0.68582
 C543 C 0.68816 0.81779 0.68661
 O544 O 0.64183 0.85689 0.65633
 C545 C 0.64588 0.86997 0.62616
 C546 C 0.68261 0.85871 0.60966
 C547 C 0.69369 0.86989 0.57802
 C548 C 0.66598 0.89385 0.56294
 C549 C 0.62804 0.90599 0.57959
 C550 C 0.61774 0.89355 0.61157
 H551 H 0.76140 0.81897 0.60684
 H552 H 0.78333 0.78424 0.65501
 H553 H 0.66705 0.81861 0.70815
 H554 H 0.72286 0.86082 0.56556
 H555 H 0.67432 0.90314 0.53843
 H556 H 0.58930 0.90253 0.62503
 C557 C 1.14742 0.68838 -0.16105
 C558 C 1.15570 0.70081 -0.13003
 C559 C 1.17974 0.73026 -0.12509
 C560 C 1.19714 0.74684 -0.15314
 C561 C 1.19185 0.73331 -0.18543
 C562 C 1.16480 0.70419 -0.18909
 O563 O 1.12523 0.65946 -0.16064
 C564 C 1.11969 0.65325 -0.12858
 C565 C 1.13803 0.67761 -0.10869
 C566 C 1.13913 0.67453 -0.07433
 C567 C 1.12074 0.64516 -0.06001
 C568 C 1.10113 0.62000 -0.08007
 C569 C 1.10020 0.62439 -0.11483
 H570 H 1.18577 0.73977 -0.10044
 H571 H 1.21615 0.76922 -0.14901
 H572 H 1.15923 0.69268 -0.21297
 H573 H 1.15457 0.69360 -0.05915
 H574 H 1.12183 0.64197 -0.03336
 H575 H 1.08641 0.60521 -0.13078
 C576 C 0.64480 1.18900 0.33788
 C577 C 0.64623 1.20459 0.36816
 C578 C 0.66406 1.23697 0.37198
 C579 C 0.68287 1.25290 0.34383
 C580 C 0.68620 1.23536 0.31324
 C581 C 0.66412 1.20379 0.31023
 O582 O 0.62709 1.15835 0.33877
 C583 C 0.61755 1.15395 0.37048
 C584 C 0.62905 1.18117 0.38985
 C585 C 0.62525 1.18013 0.42430
 C586 C 0.60899 1.15005 0.43903
 C587 C 0.59596 1.12223 0.41920
 C588 C 0.60004 1.12451 0.38445
 H589 H 0.66435 1.24924 0.39589
 H590 H 0.69788 1.27757 0.34657
 H591 H 0.66362 1.18967 0.28736
 H592 H 0.63538 1.20135 0.43932
 H593 H 0.60622 1.14849 0.46574
 H594 H 0.59134 1.10339 0.36875
 C595 C 0.83561 0.67521 0.16034
 C596 C 0.81347 0.67769 0.13089
 C597 C 0.77768 0.69896 0.12650
 C598 C 0.76365 0.71813 0.15369
 C599 C 0.78526 0.71599 0.18482
 C600 C 0.82239 0.69431 0.18773
 O601 O 0.86729 0.65199 0.15979
 C602 C 0.86491 0.63950 0.12932
 C603 C 0.83241 0.65438 0.11071
 C604 C 0.82251 0.64405 0.07876
 C605 C 0.84703 0.61723 0.06541
 C606 C 0.88080 0.60132 0.08399
 C607 C 0.89007 0.61290 0.11639
 H608 H 0.76009 0.69987 0.10328
 H609 H 0.73416 0.73293 0.15069
 H610 H 0.83943 0.69104 0.21098
 H611 H 0.79638 0.65587 0.06477
 H612 H 0.83945 0.60874 0.04063
 H613 H 0.91518 0.60100 0.13136
 C614 C 0.33202 1.17116 0.66315
 C615 C 0.31010 1.17455 0.63371
 C616 C 0.27543 1.19686 0.62946
 C617 C 0.26241 1.21628 0.65672
 C618 C 0.28366 1.21340 0.68788
 C619 C 0.31955 1.19039 0.69073
 O620 O 0.36323 1.14754 0.66213
 C621 C 0.36074 1.13581 0.63134
 C622 C 0.32862 1.15153 0.61303
 C623 C 0.31900 1.14248 0.58065
 C624 C 0.34342 1.11607 0.56649
 C625 C 0.37688 1.09932 0.58467
 C626 C 0.38585 1.10958 0.61758
 H627 H 0.25835 1.19882 0.60608
 H628 H 0.23488 1.23275 0.65317
 H629 H 0.33650 1.18660 0.71394
 H630 H 0.29325 1.15506 0.56688
 H631 H 0.33611 1.10863 0.54134
 H632 H 0.41083 1.09708 0.63221
 C633 C 0.84387 0.32981 -0.16415
 C634 C 0.84714 0.31295 -0.13442
 C635 C 0.83189 0.27988 -0.13009
 C636 C 0.81156 0.26403 -0.15722
 C637 C 0.80453 0.28188 -0.18742
 C638 C 0.82288 0.31490 -0.19097
 O639 O 0.86097 0.36078 -0.16364
 C640 C 0.87506 0.36381 -0.13275
 C641 C 0.86700 0.33541 -0.11365
 C642 C 0.87673 0.33411 -0.07998
 C643 C 0.89517 0.36321 -0.06552
 C644 C 0.90465 0.39244 -0.08492
 C645 C 0.89479 0.39254 -0.11911
 H646 H 0.83581 0.26663 -0.10674
 H647 H 0.80095 0.23801 -0.15447
 H648 H 0.82034 0.32925 -0.21380
 H649 H 0.86945 0.31181 -0.06521
 H650 H 0.90221 0.36299 -0.03925
 H651 H 0.90074 0.41479 -0.13433
 C652 C 0.35742 0.82340 0.33526
 C653 C 0.35882 0.80791 0.36576
 C654 C 0.34305 0.77521 0.37107
 C655 C 0.32375 0.75839 0.34414
 C656 C 0.31845 0.77491 0.31304
 C657 C 0.33762 0.80751 0.30856
 O658 O 0.37342 0.85467 0.33518
 C659 C 0.38474 0.85930 0.36648
 C660 C 0.37605 0.83163 0.38641
 C661 C 0.38191 0.83226 0.42059
 C662 C 0.39719 0.86260 0.43466
 C663 C 0.40723 0.89107 0.41438
 C664 C 0.40136 0.88921 0.37979
 H665 H 0.34488 0.76324 0.39521
 H666 H 0.31119 0.73330 0.34835
 H667 H 0.33575 0.82115 0.28527
 H668 H 0.37390 0.81053 0.43596
 H669 H 0.40130 0.86394 0.46125
 H670 H 0.40773 0.91089 0.36390
 C671 C 1.16672 1.17097 0.33281
 C672 C 1.12704 1.18591 0.33962
 C673 C 1.11306 1.21552 0.32400
 C674 C 1.14189 1.23095 0.30133
 C675 C 1.18370 1.21657 0.29468
 C676 C 1.19504 1.18516 0.30964
 O677 O 1.17415 1.14306 0.35039
 C678 C 1.13823 1.14016 0.36866
 C679 C 1.10813 1.16557 0.36283
 C680 C 1.06721 1.16636 0.37805
 C681 C 1.05665 1.13946 0.39957
 C682 C 1.08739 1.11329 0.40599
 C683 C 1.12897 1.11389 0.39077
 H684 H 1.08141 1.22663 0.32943
 H685 H 1.13154 1.25413 0.28927
 H686 H 1.22600 1.17273 0.30470
 H687 H 1.04378 1.18629 0.37272
 H688 H 1.02435 1.13857 0.41072
 H689 H 1.15229 1.09348 0.39451
 C690 C 0.64137 0.69618 -0.16256
 C691 C 0.60942 0.68119 -0.18118
 C692 C 0.60510 0.68666 -0.21508
 C693 C 0.63659 0.70702 -0.23082
 C694 C 0.67110 0.72182 -0.21245
 C695 C 0.67105 0.71833 -0.17734
 O696 O 0.64436 0.68343 -0.13205
 C697 C 0.61350 0.65974 -0.13140
 C698 C 0.59088 0.65791 -0.16080
 C699 C 0.55959 0.63350 -0.16696
 C700 C 0.55115 0.60988 -0.14193
 C701 C 0.57460 0.61029 -0.11148
 C702 C 0.60613 0.63590 -0.10601
 H703 H 0.58030 0.67374 -0.22931
 H704 H 0.63522 0.70957 -0.25749
 H705 H 0.69687 0.72863 -0.16225
 H706 H 0.54286 0.63220 -0.19050
 H707 H 0.52693 0.59057 -0.14693
 H708 H 0.62493 0.63666 -0.08335
 C709 C 0.83024 1.16982 0.65585
 C710 C 0.83431 1.13951 0.67250
 C711 C 0.83011 1.13650 0.70650
 C712 C 0.81870 1.16557 0.72412
 C713 C 0.81015 1.19701 0.70764
 C714 C 0.81786 1.19929 0.67291
 O715 O 0.83780 1.16689 0.62346
 C716 C 0.84628 1.13392 0.61981
 C717 C 0.84362 1.11614 0.64915
 C718 C 0.85091 1.08146 0.65160
 C719 C 0.86372 1.06449 0.62287
 C720 C 0.86960 1.08233 0.59263
 C721 C 0.85973 1.11746 0.59074
 H722 H 0.83459 1.11239 0.71903
 H723 H 0.81371 1.16260 0.75051
 H724 H 0.81193 1.22236 0.65917
 H725 H 0.84838 1.06816 0.67505
 H726 H 0.87219 1.03782 0.62463
 H727 H 0.86544 1.13181 0.56819
 C728 C 0.32322 0.66747 0.15407
 C729 C 0.35904 0.68421 0.14142
 C730 C 0.37531 0.71382 0.15509
 C731 C 0.35303 0.72729 0.18240
 C732 C 0.31476 0.71132 0.19532
 C733 C 0.30055 0.68040 0.18126
 O734 O 0.31498 0.63843 0.13880
 C735 C 0.34634 0.63684 0.11599
 C736 C 0.37405 0.66436 0.11654
 C737 C 0.41122 0.66676 0.09673
 C738 C 0.42114 0.63910 0.07641
 C739 C 0.39374 0.61014 0.07602
 C740 C 0.35513 0.60930 0.09536
 H741 H 0.40420 0.72611 0.14513
 H742 H 0.36512 0.75071 0.19277
 H743 H 0.27292 0.66657 0.19113
 H744 H 0.43299 0.68834 0.09814
 H745 H 0.45140 0.63939 0.06229
 H746 H 0.33494 0.58676 0.09657
 C747 C 1.18223 0.83705 0.65189
 C748 C 1.14456 0.82216 0.64061
 C749 C 1.12746 0.79266 0.65454
 C750 C 1.15064 0.77749 0.68071
 C751 C 1.19042 0.79167 0.69231
 C752 C 1.20569 0.82246 0.67790
 O753 O 1.19146 0.86619 0.63671
 C754 C 1.15879 0.86983 0.61537
 C755 C 1.12924 0.84349 0.61675
 C756 C 1.09079 0.84330 0.59843
 C757 C 1.08180 0.87186 0.57869
 C758 C 1.11127 0.89958 0.57736
 C759 C 1.15082 0.89827 0.59535
 H760 H 1.09702 0.78192 0.64586
 H761 H 1.13707 0.75498 0.69203
 H762 H 1.23523 0.83474 0.68638
 H763 H 1.06758 0.82266 0.60044
 H764 H 1.05089 0.87318 0.56565
 H765 H 1.17279 0.91980 0.59588
 C766 C 0.68761 0.34868 0.15646
 C767 C 0.65171 0.33338 0.14265
 C768 C 0.63323 0.30399 0.15546
 C769 C 0.65345 0.28887 0.18288
 C770 C 0.69252 0.30235 0.19656
 C771 C 0.70900 0.33354 0.18360
 O772 O 0.69773 0.37800 0.14167
 C773 C 0.66764 0.38099 0.11795
 C774 C 0.63914 0.35401 0.11737
 C775 C 0.60409 0.35214 0.09561
 C776 C 0.59698 0.37979 0.07431
 C777 C 0.62450 0.40867 0.07515
 C778 C 0.66096 0.40906 0.09686
 H779 H 0.60396 0.29314 0.14486
 H780 H 0.63859 0.26629 0.19301
 H781 H 0.73819 0.34510 0.19360
 H782 H 0.58188 0.33077 0.09596
 H783 H 0.56825 0.37972 0.05864
 H784 H 0.68124 0.43143 0.09907
 C785 C 0.82832 0.83142 0.33730
 C786 C 0.86659 0.81494 0.34522
 C787 C 0.88032 0.78559 0.32935
 C788 C 0.85273 0.77204 0.30510
 C789 C 0.81218 0.78796 0.29709
 C790 C 0.80094 0.81884 0.31277
 O791 O 0.82152 0.85925 0.35496
 C792 C 0.85634 0.86039 0.37448
 C793 C 0.88503 0.83390 0.36941
 C794 C 0.92484 0.83117 0.38584
 C795 C 0.93601 0.85728 0.40770
 C796 C 0.90700 0.88480 0.41320
 C797 C 0.86626 0.88610 0.39684
 H798 H 0.91080 0.77319 0.33582
 H799 H 0.86249 0.74851 0.29351
 H800 H 0.77150 0.83257 0.30662
 H801 H 0.94720 0.81041 0.38104
 H802 H 0.96777 0.85673 0.41957
 H803 H 0.84445 0.90760 0.39970
 C804 C 0.32872 0.33635 -0.16403
 C805 C 0.36600 0.31966 -0.15407
 C806 C 0.38123 0.29046 -0.16938
 C807 C 0.35556 0.27668 -0.19464
 C808 C 0.31499 0.29176 -0.20374
 C809 C 0.30310 0.32341 -0.18960
 O810 O 0.32022 0.36391 -0.14627
 C811 C 0.35285 0.36451 -0.12459
 C812 C 0.38169 0.33791 -0.12833
 C813 C 0.41897 0.33404 -0.10902
 C814 C 0.42785 0.35938 -0.08577
 C815 C 0.39926 0.38745 -0.08193
 C816 C 0.36070 0.38974 -0.10111
 H817 H 0.41129 0.27822 -0.16162
 H818 H 0.36683 0.25361 -0.20618
 H819 H 0.27301 0.33623 -0.19632
 H820 H 0.44136 0.31306 -0.11267
 H821 H 0.45817 0.35814 -0.07195
 H822 H 0.33945 0.41172 -0.09963
 C823 C 1.16192 0.32635 -0.15525
 C824 C 1.18682 0.32555 -0.12700
 C825 C 1.22326 0.30477 -0.12357
 C826 C 1.23505 0.28441 -0.15053
 C827 C 1.21048 0.28472 -0.18045
 C828 C 1.17275 0.30590 -0.18231
 O829 O 1.13027 0.34957 -0.15421
 C830 C 1.13550 0.36376 -0.12468
 C831 C 1.16972 0.34995 -0.10711
 C832 C 1.18257 0.36211 -0.07638
 C833 C 1.15920 0.38964 -0.06320
 C834 C 1.12375 0.40450 -0.08076
 C835 C 1.11158 0.39110 -0.11191
 H836 H 1.24312 0.30530 -0.10144
 H837 H 1.26528 0.27037 -0.14854
 H838 H 1.15360 0.30793 -0.20472
 H839 H 1.21000 0.35109 -0.06322
 H840 H 1.16900 0.39950 -0.03937
 H841 H 1.08506 0.40211 -0.12612
 C842 C 0.66881 0.83618 0.33712
 C843 C 0.66152 0.81931 0.36646
 C844 C 0.66999 0.78471 0.37011
 C845 C 0.68802 0.76729 0.34281
 C846 C 0.69992 0.78491 0.31331
 C847 C 0.68772 0.81965 0.31026
 O848 O 0.65701 0.86859 0.33785
 C849 C 0.64233 0.87256 0.36852
 C850 C 0.64483 0.84336 0.38733
 C851 C 0.63269 0.84256 0.42066
 C852 C 0.61716 0.87291 0.43490
 C853 C 0.61301 0.90286 0.41551
 C854 C 0.62571 0.90258 0.38186
 H855 H 0.66250 0.77149 0.39300
 H856 H 0.69329 0.74023 0.34496
 H857 H 0.69344 0.83406 0.28779
 H858 H 0.63535 0.81950 0.43522
 H859 H 0.60734 0.87293 0.46070
 H860 H 0.62306 0.92518 0.36661
 C861 C 0.82461 0.68188 -0.14720
 C862 C 0.79600 0.65524 -0.14345
 C863 C 0.75877 0.65157 -0.16222
 C864 C 0.75021 0.67644 -0.18580
 C865 C 0.77587 0.70662 -0.18841
 C866 C 0.81466 0.70881 -0.16907
 O867 O 0.86159 0.67711 -0.13026
 C868 C 0.85548 0.64704 -0.11554
 C869 C 0.81533 0.63320 -0.12248
 C870 C 0.80168 0.60176 -0.11077
 C871 C 0.83078 0.58343 -0.09099
 C872 C 0.87310 0.59616 -0.08432
 C873 C 0.88586 0.62850 -0.09665
 H874 H 0.73854 0.62910 -0.16039
 H875 H 0.72365 0.67122 -0.20255
 H876 H 0.83723 0.72974 -0.17214
 H877 H 0.76985 0.59157 -0.11688
 H878 H 0.82095 0.55869 -0.08182
 H879 H 0.91821 0.63853 -0.09197
 C880 C 0.33889 1.18345 0.34406
 C881 C 0.31368 1.18467 0.37229
 C882 C 0.27664 1.20500 0.37484
 C883 C 0.26458 1.22426 0.34696
 C884 C 0.28926 1.22292 0.31699
 C885 C 0.32769 1.20256 0.31616
 O886 O 0.37115 1.16091 0.34588
 C887 C 0.36606 1.14745 0.37585
 C888 C 0.33131 1.16104 0.39305
 C889 C 0.31848 1.14906 0.42410
 C890 C 0.34239 1.12195 0.43789
 C891 C 0.37832 1.10748 0.42055
 C892 C 0.39048 1.12076 0.38920
 H893 H 0.25669 1.20503 0.39705
 H894 H 0.23430 1.23838 0.34836
 H895 H 0.34722 1.19995 0.29391
 H896 H 0.29059 1.15977 0.43697
 H897 H 0.33263 1.11206 0.46187
 H898 H 0.41728 1.10996 0.37511
 C899 C 1.16505 0.67317 0.16755
 C900 C 1.15373 0.69301 0.14086
 C901 C 1.16319 0.72761 0.13950
 C902 C 1.18641 0.74184 0.16620
 C903 C 1.20209 0.72111 0.19254
 C904 C 1.18891 0.68653 0.19364
 O905 O 1.15262 0.64109 0.16482
 C906 C 1.13337 0.64037 0.13549
 C907 C 1.13353 0.67133 0.11948
 C908 C 1.11737 0.67544 0.08745
 C909 C 1.10058 0.64654 0.07149
 C910 C 1.09918 0.61472 0.08805
 C911 C 1.11553 0.61172 0.12056
 H912 H 1.15291 0.74313 0.11874
 H913 H 1.19298 0.76880 0.16587
 H914 H 1.19769 0.66976 0.21384
 H915 H 1.11847 0.69980 0.07497
 H916 H 1.08838 0.64890 0.04643
 H917 H 1.11560 0.58754 0.13344
 C918 C 0.68339 1.17197 0.65364
 C919 C 0.64815 1.19002 0.64185
 C920 C 0.63876 1.22285 0.65203
 C921 C 0.66671 1.23763 0.67537
 C922 C 0.70359 1.21966 0.68816
 C923 C 0.71126 1.18600 0.67718
 O924 O 0.68554 1.14061 0.64188
 C925 C 0.65079 1.13879 0.62230
 C926 C 0.62657 1.16829 0.62162
 C927 C 0.58725 1.17118 0.60445
 C928 C 0.57235 1.14250 0.58734
 C929 C 0.59716 1.11212 0.58731
 C930 C 0.63706 1.11026 0.60483
 H931 H 0.61044 1.23642 0.64279
 H932 H 0.65898 1.26297 0.68376
 H933 H 0.73664 1.17024 0.68763
 H934 H 0.56832 1.19442 0.60477
 H935 H 0.54154 1.14384 0.57418
 H936 H 0.65599 1.08701 0.60567
 C937 C 0.85090 0.31677 0.15925
 C938 C 0.83006 0.31395 0.12933
 C939 C 0.79205 0.29540 0.12520
 C940 C 0.77431 0.27932 0.15308
 C941 C 0.79531 0.28054 0.18450
 C942 C 0.83474 0.29959 0.18724
 O943 O 0.88334 0.33934 0.15855
 C944 C 0.88276 0.35089 0.12748
 C945 C 0.85088 0.33583 0.10867
 C946 C 0.84199 0.34544 0.07627
 C947 C 0.86655 0.37202 0.06266
 C948 C 0.89898 0.38885 0.08155
 C949 C 0.90780 0.37766 0.11435
 H950 H 0.77496 0.29514 0.10176
 H951 H 0.74243 0.26808 0.15019
 H952 H 0.85067 0.30302 0.21088
 H953 H 0.81625 0.33345 0.06220
 H954 H 0.85933 0.38007 0.03758
 H955 H 0.93171 0.39040 0.12959
 C956 C 0.34922 0.81686 0.65804
 C957 C 0.33007 0.81161 0.62779
 C958 C 0.29505 0.78966 0.62353
 C959 C 0.27836 0.77299 0.65165
 C960 C 0.29689 0.77798 0.68355
 C961 C 0.33371 0.79992 0.68630
 O962 O 0.37944 0.84116 0.65728
 C963 C 0.37922 0.85153 0.62586
 C964 C 0.34956 0.83418 0.60683
 C965 C 0.34147 0.84244 0.57390
 C966 C 0.36458 0.86984 0.56005
 C967 C 0.39511 0.88852 0.57910
 C968 C 0.40298 0.87881 0.61244
 H969 H 0.27951 0.78684 0.59966
 H970 H 0.24884 0.75838 0.64858
 H971 H 0.34804 0.80570 0.71007
 H972 H 0.31742 0.82879 0.55957
 H973 H 0.35805 0.87685 0.53457
 H974 H 0.42535 0.89295 0.62783
 C975 C 0.33218 1.17628 -0.15355
 C976 C 0.30337 1.17163 -0.12775
 C977 C 0.26168 1.18574 -0.12729
 C978 C 0.24927 1.20564 -0.15455
 C979 C 0.27905 1.21219 -0.18100
 C980 C 0.32090 1.19653 -0.18048
 O981 O 0.36863 1.15814 -0.15060
 C982 C 0.36272 1.14171 -0.12220
 C983 C 0.32339 1.14929 -0.10717
 C984 C 0.30951 1.13396 -0.07798
 C985 C 0.33715 1.10956 -0.06382
 C986 C 0.37748 1.10068 -0.07921
 C987 C 0.39067 1.11733 -0.10865
 H988 H 0.23898 1.18066 -0.10723
 H989 H 0.21621 1.21556 -0.15511
 H990 H 0.34355 1.19849 -0.20103
 H991 H 0.27825 1.14015 -0.06680
 H992 H 0.32652 1.09705 -0.04125
 H993 H 0.42102 1.11088 -0.12108
 C994 C 0.81263 0.66488 0.34068
 C995 C 0.81768 0.68271 0.36953
 C996 C 0.80163 0.71537 0.37364
 C997 C 0.78033 0.73051 0.34665
 C998 C 0.77394 0.71260 0.31653
 C999 C 0.79009 0.67892 0.31404
 O1000 O 0.83279 0.63504 0.34100
 C1001 C 0.85082 0.63398 0.37080
 C1002 C 0.84221 0.66241 0.38939
 C1003 C 0.85728 0.66632 0.42160
 C1004 C 0.88156 0.63950 0.43537
 C1005 C 0.89128 0.61029 0.41641
 C1006 C 0.87613 0.60758 0.38360
 H1007 H 0.80715 0.72932 0.39625
 H1008 H 0.77119 0.75683 0.34895
 H1009 H 0.78765 0.66448 0.29142
 H1010 H 0.84984 0.68882 0.43581
 H1011 H 0.89264 0.64131 0.46075
 H1012 H 0.88241 0.58509 0.36903
 C1013 C 0.66269 1.18143 0.15784
 C1014 C 0.69458 1.17296 0.13530
 C1015 C 0.73757 1.18375 0.13768
 C1016 C 0.74809 1.20467 0.16423
 C1017 C 0.71529 1.21614 0.18671
 C1018 C 0.67214 1.20317 0.18391
 O1019 O 0.62489 1.16574 0.15257
 C1020 C 0.63325 1.14717 0.12594
 C1021 C 0.67537 1.15109 0.11435
 C1022 C 0.69187 1.13381 0.08727
 C1023 C 0.66384 1.11124 0.07146
 C1024 C 0.62051 1.10588 0.08329
 C1025 C 0.60481 1.12428 0.11086
 H1026 H 0.76247 1.17541 0.12039
 H1027 H 0.78204 1.21182 0.16716
 H1028 H 0.64696 1.20873 0.20201
 H1029 H 0.72523 1.13734 0.07880
 H1030 H 0.67648 1.09729 0.05045
 H1031 H 0.57199 1.12057 0.12044
 C1032 C 1.17165 0.66993 0.66328
 C1033 C 1.20363 0.65987 0.64148
 C1034 C 1.24649 0.67163 0.64296
 C1035 C 1.25663 0.69506 0.66781
 C1036 C 1.22370 0.70711 0.68977
 C1037 C 1.18086 0.69335 0.68777
 O1038 O 1.13335 0.65493 0.65845
 C1039 C 1.14120 0.63498 0.63279
 C1040 C 1.18371 0.63721 0.62145
 C1041 C 1.19915 0.61874 0.59474
 C1042 C 1.16956 0.59717 0.57901
 C1043 C 1.12555 0.59415 0.59033
 C1044 C 1.11120 0.61331 0.61774
 H1045 H 1.27136 0.66274 0.62591
 H1046 H 1.29008 0.70383 0.66983
 H1047 H 1.15517 0.69990 0.70509
 H1048 H 1.23270 0.62094 0.58625
 H1049 H 1.18123 0.58261 0.55809
 H1050 H 1.07788 0.61162 0.62685
 C1051 C 0.66898 0.82601 -0.15503
 C1052 C 0.69561 0.82728 -0.12776
 C1053 C 0.73538 0.80992 -0.12607
 C1054 C 0.74845 0.79097 -0.15388
 C1055 C 0.72174 0.78973 -0.18254
 C1056 C 0.68096 0.80714 -0.18253
 O1057 O 0.63398 0.84589 -0.15285
 C1058 C 0.63852 0.86027 -0.12350
 C1059 C 0.67560 0.84967 -0.10705
 C1060 C 0.68786 0.86289 -0.07667
 C1061 C 0.66119 0.88827 -0.06296
 C1062 C 0.62320 0.90010 -0.07977
 C1063 C 0.61144 0.88543 -0.11029
 H1064 H 0.75615 0.81165 -0.10449
 H1065 H 0.77973 0.77804 -0.15333
 H1066 H 0.65940 0.80727 -0.20371
 H1067 H 0.71737 0.85449 -0.06429
 H1068 H 0.67074 0.89918 -0.03952
 H1069 H 0.58307 0.89417 -0.12394
 C1070 C 1.17045 0.33202 0.33980
 C1071 C 1.19950 0.33694 0.36516
 C1072 C 1.24148 0.32329 0.36524
 C1073 C 1.25387 0.30338 0.33813
 C1074 C 1.22384 0.29644 0.31224
 C1075 C 1.18176 0.31180 0.31298
 O1076 O 1.13315 0.34899 0.34356
 C1077 C 1.13874 0.36489 0.37210
 C1078 C 1.17872 0.35810 0.38634
 C1079 C 1.19194 0.37230 0.41596
 C1080 C 1.16292 0.39467 0.43148
 C1081 C 1.12177 0.40280 0.41704
 C1082 C 1.10937 0.38745 0.38696
 H1083 H 1.26418 0.32836 0.38511
 H1084 H 1.28688 0.29334 0.33746
 H1085 H 1.15863 0.30902 0.29300
 H1086 H 1.22361 0.36659 0.42662
 H1087 H 1.17307 0.40616 0.45449
 H1088 H 1.07833 0.39323 0.37531
 C1089 C 0.32138 0.83797 0.16396
 C1090 C 0.32063 0.82286 0.13343
 C1091 C 0.29991 0.79213 0.12779
 C1092 C 0.28038 0.77575 0.15498
 C1093 C 0.28072 0.79054 0.18706
 C1094 C 0.30084 0.82276 0.19103
 O1095 O 0.34505 0.86618 0.16458
 C1096 C 0.35955 0.86897 0.13367
 C1097 C 0.34531 0.84317 0.11358
 C1098 C 0.35621 0.84121 0.08021
 C1099 C 0.38190 0.86740 0.06684
 C1100 C 0.39698 0.89422 0.08707
 C1101 C 0.38623 0.89477 0.12109
 H1102 H 0.30075 0.78027 0.10368
 H1103 H 0.26798 0.75048 0.15117
 H1104 H 0.30337 0.83483 0.21494
 H1105 H 0.34455 0.82071 0.06487
 H1106 H 0.38964 0.86710 0.04064
 H1107 H 0.39659 0.91539 0.13683
 C1108 C 0.83964 0.32178 0.65546
 C1109 C 0.81525 0.32049 0.62700
 C1110 C 0.77781 0.30077 0.62429
 C1111 C 0.76457 0.28206 0.65223
 C1112 C 0.78884 0.28303 0.68217
 C1113 C 0.82748 0.30300 0.68329
 O1114 O 0.87217 0.34402 0.65384
 C1115 C 0.86814 0.35715 0.62368
 C1116 C 0.83386 0.34354 0.60620
 C1117 C 0.82203 0.35509 0.57490
 C1118 C 0.84623 0.38199 0.56122
 C1119 C 0.88134 0.39679 0.57897
 C1120 C 0.89279 0.38378 0.61048
 H1121 H 0.75865 0.30063 0.60179
 H1122 H 0.73495 0.26763 0.65031
 H1123 H 0.84661 0.30539 0.70566
 H1124 H 0.79455 0.34430 0.56180
 H1125 H 0.83702 0.39167 0.53707
 H1126 H 0.91895 0.39486 0.62484
 C1127 C 1.15031 1.17942 0.66288
 C1128 C 1.15162 1.14730 0.67619
 C1129 C 1.16317 1.14065 0.70864
 C1130 C 1.17727 1.16790 0.72766
 C1131 C 1.18126 1.20119 0.71385
 C1132 C 1.16421 1.20729 0.68163
 O1133 O 1.13765 1.17967 0.63130
 C1134 C 1.13154 1.14689 0.62471
 C1135 C 1.14030 1.12622 0.65144
 C1136 C 1.13754 1.09112 0.65040
 C1137 C 1.12335 1.07655 0.62091
 C1138 C 1.11189 1.09706 0.59334
 C1139 C 1.11668 1.13280 0.59492
 H1140 H 1.16279 1.11513 0.71870
 H1141 H 1.18800 1.16219 0.75259
 H1142 H 1.16452 1.23223 0.67052
 H1143 H 1.14512 1.07553 0.67179
 H1144 H 1.11902 1.04928 0.62002
 H1145 H 1.10713 1.14898 0.57441
 C1146 C 0.66663 0.66853 0.16062
 C1147 C 0.63164 0.68671 0.14860
 C1148 C 0.61649 0.71619 0.16352
 C1149 C 0.63998 0.72855 0.19070
 C1150 C 0.67847 0.71188 0.20203
 C1151 C 0.69003 0.68011 0.18797
 O1152 O 0.67539 0.64089 0.14307
 C1153 C 0.64530 0.64172 0.11938
 C1154 C 0.61779 0.66933 0.12162
 C1155 C 0.58306 0.67467 0.10001
 C1156 C 0.57531 0.64985 0.07594
 C1157 C 0.60251 0.62078 0.07362
 C1158 C 0.63854 0.61697 0.09524
 H1159 H 0.58811 0.72960 0.15417
 H1160 H 0.62870 0.75166 0.20213
 H1161 H 0.71847 0.66606 0.19628
 H1162 H 0.56157 0.69639 0.10249
 H1163 H 0.54669 0.65224 0.06031
 H1164 H 0.65847 0.59421 0.09496
 C1165 C 1.16991 0.83321 0.33380
 C1166 C 1.18134 0.82335 0.36532
 C1167 C 1.20573 0.79461 0.37193
 C1168 C 1.21996 0.77553 0.34498
 C1169 C 1.21081 0.78542 0.31172
 C1170 C 1.18449 0.81470 0.30627
 O1171 O 1.14635 0.86163 0.33337
 C1172 C 1.14339 0.86975 0.36527
 C1173 C 1.16476 0.84727 0.38572
 C1174 C 1.16786 0.85156 0.41981
 C1175 C 1.14758 0.88016 0.43356
 C1176 C 1.12411 0.90317 0.41323
 C1177 C 1.12196 0.89791 0.37857
 H1178 H 1.21409 0.78730 0.39701
 H1179 H 1.23938 0.75365 0.35075
 H1180 H 1.17685 0.82348 0.28151
 H1181 H 1.18549 0.83364 0.43523
 H1182 H 1.14925 0.88398 0.46007
 H1183 H 1.10456 0.91539 0.36252
 C1184 C 0.68486 0.34245 -0.16427
 C1185 C 0.64598 0.32784 -0.15474
 C1186 C 0.62853 0.29962 -0.17003
 C1187 C 0.65309 0.28470 -0.19528
 C1188 C 0.69513 0.29751 -0.20434
 C1189 C 0.71029 0.32777 -0.18934
 O1190 O 0.69385 0.37059 -0.14755
 C1191 C 0.65991 0.37349 -0.12694
 C1192 C 0.63008 0.34762 -0.13028
 C1193 C 0.59124 0.34591 -0.11244
 C1194 C 0.58164 0.37281 -0.09125
 C1195 C 0.61066 0.40064 -0.08832
 C1196 C 0.65109 0.40062 -0.10560
 H1197 H 0.59723 0.28918 -0.16255
 H1198 H 0.63990 0.26202 -0.20637
 H1199 H 0.74111 0.33915 -0.19633
 H1200 H 0.56826 0.32535 -0.11580
 H1201 H 0.55033 0.37298 -0.07852
 H1202 H 0.67294 0.42220 -0.10466
 C1203 C 0.82545 1.15933 0.32684
 C1204 C 0.81237 1.16786 0.35832
 C1205 C 0.78926 1.19682 0.36554
 C1206 C 0.77825 1.21786 0.33928
 C1207 C 0.78826 1.20973 0.30571
 C1208 C 0.81309 1.17975 0.29953
 O1209 O 0.84979 1.13118 0.32657
 C1210 C 0.85144 1.12217 0.35852
 C1211 C 0.82838 1.14375 0.37865
 C1212 C 0.82465 1.13953 0.41271
 C1213 C 0.84611 1.11183 0.42704
 C1214 C 0.87152 1.08963 0.40735
 C1215 C 0.87422 1.09472 0.37249
 H1216 H 0.78077 1.20348 0.39074
 H1217 H 0.76241 1.24105 0.34595
 H1218 H 0.82217 1.17255 0.27461
 H1219 H 0.80593 1.15702 0.42776
 H1220 H 0.84401 1.10828 0.45361
 H1221 H 0.89341 1.07798 0.35697
 C1222 C 0.33057 0.66764 -0.16840
 C1223 C 0.32748 0.68127 -0.13725
 C1224 C 0.31264 0.71389 -0.13163
 C1225 C 0.29895 0.73295 -0.15902
 C1226 C 0.29869 0.71923 -0.19157
 C1227 C 0.31610 0.68605 -0.19616
 O1228 O 0.34637 0.63615 -0.16812
 C1229 C 0.35287 0.62991 -0.13606
 C1230 C 0.34116 0.65658 -0.11613
 C1231 C 0.34335 0.65510 -0.08170
 C1232 C 0.35914 0.62503 -0.06717
 C1233 C 0.37323 0.59770 -0.08720
 C1234 C 0.36985 0.60013 -0.12215
 H1235 H 0.31104 0.72425 -0.10688
 H1236 H 0.28687 0.75780 -0.15380
 H1237 H 0.31666 0.67427 -0.22031
 H1238 H 0.33333 0.67636 -0.06658
 H1239 H 0.36192 0.62349 -0.04047
 H1240 H 0.38031 0.57951 -0.13795
 C1241 C 0.84971 0.84004 0.67673
 C1242 C 0.88321 0.82136 0.66313
 C1243 C 0.89422 0.78910 0.67468
 C1244 C 0.86779 0.77476 0.69971
 C1245 C 0.83084 0.79252 0.71225
 C1246 C 0.82409 0.82672 0.70219
 O1247 O 0.84285 0.86941 0.66138
 C1248 C 0.87265 0.86936 0.63744
 C1249 C 0.89841 0.84062 0.63743
 C1250 C 0.93162 0.83547 0.61425
 C1251 C 0.93921 0.86137 0.59081
 C1252 C 0.91301 0.89109 0.59052
 C1253 C 0.87908 0.89501 0.61398
 H1254 H 0.92104 0.77492 0.66389
 H1255 H 0.87511 0.74935 0.70815
 H1256 H 0.79664 0.84151 0.71115
 H1257 H 0.95161 0.81276 0.61470
 H1258 H 0.96612 0.85875 0.57345
 H1259 H 0.85959 0.91799 0.61483
 C1260 C 0.34078 0.33770 0.16523
 C1261 C 0.38123 0.32343 0.15973
 C1262 C 0.39520 0.29416 0.17597
 C1263 C 0.36570 0.27844 0.19797
 C1264 C 0.32328 0.29228 0.20347
 C1265 C 0.31181 0.32330 0.18783
 O1266 O 0.33329 0.36515 0.14700
 C1267 C 0.36995 0.36847 0.12966
 C1268 C 0.40062 0.34383 0.13676
 C1269 C 0.44219 0.34357 0.12253
 C1270 C 0.45267 0.37009 0.10053
 C1271 C 0.42121 0.39533 0.09260
 C1272 C 0.37913 0.39428 0.10701
 H1273 H 0.42736 0.28350 0.17147
 H1274 H 0.37607 0.25550 0.21047
 H1275 H 0.28041 0.33538 0.19197
 H1276 H 0.46604 0.32424 0.12882
 H1277 H 0.48526 0.37123 0.08989
 H1278 H 0.35511 0.41389 0.10199
   
