data_POSCAR
  _audit_creation_date              2014-09-24
  _audit_creation_method            'ToBaCCo'
  _symmetry_space_group_name_H-M    'P1'
  _symmetry_Int_Tables_number       1
  _symmetry_cell_setting            triclinic
  loop_
  _symmetry_equiv_pos_as_xyz
 x,y,z
_cell_length_a 28.7822
_cell_length_b 28.6925
_cell_length_c 28.9162
_cell_angle_alpha 89.602900
_cell_angle_beta 89.708200
_cell_angle_gamma 90.004900
loop_
  _atom_site_label
  _atom_site_type_symbol
  _atom_site_fract_x
  _atom_site_fract_y
  _atom_site_fract_z
C1 C 0.38529 -0.00858 0.25160
 C2 C 0.12053 -0.00423 0.75094
 C3 C 0.61872 0.49925 0.24894
 C4 C 0.87883 0.50421 0.74674
 C5 C 0.25342 0.36446 0.99488
 C6 C 0.75244 0.13053 1.00521
 C7 C 0.24997 0.62773 0.50039
 C8 C 0.75908 0.86044 0.49594
 C9 C 0.00882 0.25376 0.35575
 C10 C -0.00317 0.74194 0.11666
 C11 C 0.50112 0.24579 0.61250
 C12 C 0.49554 0.75583 0.87093
 C13 C -0.24625 0.62458 0.99997
 C14 C -0.24996 0.37128 0.50333
 C15 C 0.25185 -0.13081 -0.00035
 C16 C 0.25685 1.12298 0.49709
 C17 C 0.12218 0.49235 0.24489
 C18 C -0.11758 0.99911 0.25298
 C19 C 0.37946 0.49579 -0.24983
 C20 C 0.62260 0.00451 -0.24597
 C21 C -0.00164 0.24484 0.85837
 C22 C 0.50916 0.25464 0.11451
 C23 C -0.00171 0.75407 0.61333
 C24 C 0.49279 0.75031 0.36562
 Zr25 Zr 0.04066 -0.02977 1.07058
 O26 O 0.08398 -0.00601 1.12440
 O27 O 0.03060 -0.09860 1.09007
 O28 O 0.00455 -0.03185 1.13522
 O29 O 0.12943 -0.04749 0.99087
 O30 O -0.06339 0.00565 1.11907
 O31 O 0.10788 -0.06087 1.06586
 O32 O -0.01720 -0.12761 1.03436
 O33 O -0.02922 -0.04084 1.05334
 O34 O 0.04014 -0.06168 1.00564
 O35 O 0.00906 0.03624 1.07129
 O36 O 0.07726 0.01561 1.02578
 Zr37 Zr -0.02700 0.04159 0.94039
 Zr38 Zr -0.05953 0.02540 1.04965
 Zr39 Zr 0.07217 -0.01496 0.96015
 Zr40 Zr -0.02889 -0.07065 0.98790
 O41 O 0.13329 0.02313 0.94436
 O42 O -0.09508 -0.09332 1.01141
 O43 O 0.00339 -0.02574 0.93927
 O44 O -0.06229 -0.00555 0.98452
 O45 O -0.02683 0.07314 1.00543
 O46 O 0.04266 0.05122 0.95840
 C47 C 0.00654 -0.13119 1.07210
 C48 C 0.13679 -0.06419 1.03154
 C49 C -0.03580 -0.01565 1.14683
 O50 O -0.12245 -0.01126 1.06103
 O51 O -0.11563 0.06182 1.02026
 O52 O -0.09340 0.07473 0.94552
 C53 C -0.12273 0.07839 0.97946
 O54 O 0.08921 0.08651 1.08100
 Zr55 Zr 0.04296 0.08007 1.02432
 O56 O -0.01617 0.11274 0.92593
 O57 O -0.07292 0.08539 1.08977
 O58 O 0.01502 0.13206 1.06826
 O59 O 0.10748 0.10666 1.00006
 O60 O 0.02930 0.13936 0.98456
 C61 C 0.00630 0.14500 0.94724
 O62 O -0.07196 0.02148 0.88635
 O63 O 0.08718 -0.07662 0.92310
 O64 O 0.00705 0.04058 0.87452
 O65 O 0.07235 -0.00210 0.88859
 O66 O 0.00002 -0.12511 0.94773
 O67 O -0.07029 -0.08329 0.92861
 C68 C 0.04505 0.02038 0.86129
 H69 H 0.05623 -0.09216 1.00524
 H70 H -0.09476 -0.01005 0.97434
 H71 H 0.05973 0.07143 0.93623
 H72 H 0.01032 0.05022 1.10247
 H73 H -0.09650 -0.12754 1.00720
 H74 H -0.14131 0.00741 1.08291
 H75 H -0.10424 0.08134 1.10365
 H76 H 0.03454 0.16034 1.06480
 H77 H -0.01767 -0.15388 0.95505
 H78 H 0.11868 -0.07284 0.90954
 H79 H 0.15191 0.00373 0.92294
 H80 H 0.10924 0.13990 1.00899
 H81 H -0.08329 -0.11522 0.93047
 H82 H -0.07703 0.04943 0.86660
 H83 H 0.08996 -0.03321 1.14488
 H84 H 0.09830 0.11957 1.08453
 Zr85 Zr 0.53947 0.47296 0.56963
 O86 O 0.58195 0.49836 0.62339
 O87 O 0.52973 0.40485 0.59027
 O88 O 0.50326 0.46975 0.63387
 O89 O 0.62977 0.45664 0.49190
 O90 O 0.43437 0.50502 0.61697
 O91 O 0.60658 0.44242 0.56632
 O92 O 0.48278 0.37521 0.53415
 O93 O 0.47024 0.46004 0.55136
 O94 O 0.54064 0.44078 0.50475
 O95 O 0.50621 0.53791 0.57034
 O96 O 0.57602 0.51869 0.52532
 Zr97 Zr 0.47207 0.54200 0.43889
 Zr98 Zr 0.43829 0.52522 0.54768
 Zr99 Zr 0.57247 0.48801 0.45956
 Zr100 Zr 0.47216 0.43031 0.48595
 O101 O 0.63264 0.52765 0.44409
 O102 O 0.40562 0.40599 0.50672
 O103 O 0.50422 0.47562 0.43782
 O104 O 0.43717 0.49424 0.48247
 O105 O 0.47065 0.57349 0.50396
 O106 O 0.54125 0.55346 0.45771
 C107 C 0.50557 0.37246 0.57245
 C108 C 0.63626 0.43975 0.53275
 C109 C 0.46232 0.48451 0.64497
 O110 O 0.37635 0.48687 0.55891
 O111 O 0.38142 0.55925 0.51731
 O112 O 0.40416 0.57163 0.44263
 C113 C 0.37422 0.57442 0.47605
 O114 O 0.58670 0.58834 0.58017
 Zr115 Zr 0.54004 0.58201 0.52382
 O116 O 0.48031 0.61363 0.42563
 O117 O 0.42282 0.58523 0.58699
 O118 O 0.51225 0.63310 0.56892
 O119 O 0.60308 0.61139 0.49881
 O120 O 0.52307 0.64103 0.48593
 C121 C 0.50047 0.64629 0.44847
 O122 O 0.42909 0.52094 0.38359
 O123 O 0.58994 0.42664 0.42312
 O124 O 0.50674 0.54249 0.37356
 O125 O 0.57253 0.50048 0.38763
 O126 O 0.50312 0.37529 0.44809
 O127 O 0.43353 0.41691 0.42500
 C128 C 0.54490 0.52275 0.36033
 H129 H 0.55716 0.41052 0.50488
 H130 H 0.40505 0.48864 0.47176
 H131 H 0.55780 0.57431 0.43574
 H132 H 0.50680 0.55187 0.60155
 H133 H 0.40524 0.37176 0.50239
 H134 H 0.35675 0.50521 0.58043
 H135 H 0.39175 0.58010 0.60107
 H136 H 0.53166 0.66151 0.56590
 H137 H 0.48540 0.34654 0.45541
 H138 H 0.62142 0.43143 0.40986
 H139 H 0.65215 0.50837 0.42335
 H140 H 0.60370 0.64453 0.50823
 H141 H 0.42116 0.38471 0.42623
 H142 H 0.42317 0.54891 0.36408
 H143 H 0.58828 0.47166 0.64440
 H144 H 0.59633 0.62129 0.58336
 Zr145 Zr 0.46778 1.01768 0.56686
 O146 O 0.42299 0.98459 0.61509
 O147 O 0.47326 1.08422 0.59357
 O148 O 0.50030 1.01593 0.63286
 O149 O 0.38173 1.04188 0.48558
 O150 O 0.57174 0.98521 0.61726
 O151 O 0.39991 1.04796 0.56201
 O152 O 0.52245 1.12028 0.54234
 O153 O 0.53773 1.03429 0.55388
 O154 O 0.47010 1.05695 0.50562
 O155 O 0.50326 0.95367 0.56255
 O156 O 0.43651 0.97532 0.51650
 Zr157 Zr 0.54662 0.96817 0.43361
 Zr158 Zr 0.57222 0.97077 0.54614
 Zr159 Zr 0.44221 1.01443 0.45515
 Zr160 Zr 0.53947 1.07121 0.49161
 O161 O 0.38386 0.97444 0.43545
 O162 O 0.60287 1.09521 0.51990
 O163 O 0.51098 1.03225 0.43752
 O164 O 0.57740 1.00961 0.48461
 O165 O 0.54530 0.92807 0.49460
 O166 O 0.47696 0.95139 0.44750
 C167 C 0.49643 1.11923 0.57863
 C168 C 0.37228 1.05444 0.52718
 C169 C 0.54146 1.00275 0.64509
 O170 O 0.63338 1.00813 0.56222
 O171 O 0.62964 0.93687 0.51613
 O172 O 0.61398 0.93706 0.43880
 C173 C 0.64007 0.92700 0.47398
 O174 O 0.42769 0.89422 0.56167
 Zr175 Zr 0.47578 0.91378 0.50897
 O176 O 0.54416 0.90128 0.40811
 O177 O 0.58574 0.90843 0.58327
 O178 O 0.50660 0.85859 0.54708
 O179 O 0.41493 0.88503 0.47947
 O180 O 0.49745 0.86361 0.46043
 C181 C 0.52295 0.86537 0.42364
 O182 O 0.59218 1.00099 0.38592
 O183 O 0.42575 1.07858 0.42247
 O184 O 0.51433 0.97314 0.36705
 O185 O 0.44478 1.00743 0.38348
 O186 O 0.51084 1.13004 0.45729
 O187 O 0.58198 1.09138 0.43456
 C188 C 0.47395 0.98926 0.35513
 H189 H 0.45259 1.08658 0.50716
 H190 H 0.61013 1.01683 0.47668
 H191 H 0.46223 0.93274 0.42294
 H192 H 0.50107 0.93620 0.59213
 H193 H 0.60258 1.12971 0.51807
 H194 H 0.65201 0.98785 0.58290
 H195 H 0.61618 0.91248 0.59860
 H196 H 0.49174 0.82923 0.53700
 H197 H 0.52863 1.15777 0.46724
 H198 H 0.39538 1.07444 0.40700
 H199 H 0.36467 0.99455 0.41511
 H200 H 0.41721 0.85067 0.48240
 H201 H 0.59522 1.12267 0.44023
 H202 H 0.60102 0.97698 0.36300
 H203 H 0.41402 1.00862 0.63794
 H204 H 0.42295 0.86004 0.56111
 Zr205 Zr -0.02839 0.53222 1.05771
 O206 O -0.07175 0.51833 1.11560
 O207 O -0.01248 0.60310 1.06718
 O208 O 0.00735 0.53265 1.12221
 O209 O -0.12074 0.54722 0.98226
 O210 O 0.07038 0.48650 1.10884
 O211 O -0.09389 0.56613 1.05379
 O212 O 0.03585 0.62264 1.00727
 O213 O 0.04151 0.53710 1.03748
 O214 O -0.02796 0.55924 0.99033
 O215 O -0.00260 0.46360 1.06164
 O216 O -0.06906 0.48590 1.01813
 Zr217 Zr 0.03069 0.44871 0.93038
 Zr218 Zr 0.06626 0.46844 1.03859
 Zr219 Zr -0.06499 0.51227 0.95049
 Zr220 Zr 0.04114 0.56141 0.96894
 O221 O -0.12762 0.47582 0.93815
 O222 O 0.10936 0.58142 0.98791
 O223 O 0.00366 0.51705 0.92566
 O224 O 0.07002 0.49488 0.97082
 O225 O 0.03017 0.42061 0.99760
 O226 O -0.03914 0.44436 0.95101
 C227 C 0.01269 0.63224 1.04386
 C228 C -0.12514 0.56692 1.02188
 C229 C 0.04447 0.51114 1.13563
 O230 O 0.12983 0.50384 1.04887
 O231 O 0.12077 0.42983 1.00960
 O232 O 0.09669 0.41415 0.93623
 C233 C 0.12687 0.41181 0.96948
 O234 O -0.08467 0.41629 1.07689
 Zr235 Zr -0.03947 0.41887 1.01853
 O236 O 0.01562 0.37817 0.92002
 O237 O 0.07777 0.40797 1.07929
 O238 O -0.01308 0.36753 1.06456
 O239 O -0.10640 0.39635 0.99792
 O240 O -0.03033 0.35692 0.98111
 C241 C -0.00824 0.34822 0.94350
 O242 O 0.07527 0.46121 0.87319
 O243 O -0.07935 0.57357 0.91183
 O244 O -0.00497 0.45213 0.86515
 O245 O -0.06740 0.49887 0.87979
 O246 O 0.01548 0.61478 0.92482
 O247 O 0.08059 0.56396 0.90660
 C248 C -0.04187 0.47488 0.85235
 H249 H -0.04248 0.59042 0.98786
 H250 H 0.10247 0.49726 0.95958
 H251 H -0.05775 0.42437 0.93037
 H252 H -0.00486 0.45097 1.09350
 H253 H 0.11388 0.61425 0.97801
 H254 H 0.14831 0.48461 1.07065
 H255 H 0.10923 0.41086 1.09278
 H256 H -0.03350 0.33980 1.06264
 H257 H 0.03758 0.64125 0.92592
 H258 H -0.11154 0.57076 0.90012
 H259 H -0.14621 0.49535 0.91674
 H260 H -0.10971 0.36320 1.00723
 H261 H 0.09759 0.59392 0.90475
 H262 H 0.07718 0.43166 0.85563
 H263 H -0.07474 0.54775 1.13326
 H264 H -0.09540 0.38386 1.08196
 Zr265 Zr -0.03991 0.47438 0.42738
 O266 O -0.08517 0.50769 0.38022
 O267 O -0.03269 0.40917 0.39827
 O268 O -0.00668 0.47878 0.36135
 O269 O -0.12455 0.44645 0.50861
 O270 O 0.06384 0.51051 0.37834
 O271 O -0.10722 0.44257 0.43171
 O272 O 0.01835 0.37286 0.44690
 O273 O 0.03034 0.45933 0.43996
 O274 O -0.03716 0.43366 0.48774
 O275 O -0.00586 0.53905 0.43296
 O276 O -0.07261 0.51443 0.47901
 Zr277 Zr 0.03587 0.52410 0.56176
 Zr278 Zr 0.06329 0.52340 0.44966
 Zr279 Zr -0.06584 0.47449 0.53983
 Zr280 Zr 0.03228 0.42063 0.50095
 O281 O -0.12629 0.51098 0.56063
 O282 O 0.09729 0.39977 0.47315
 O283 O 0.00314 0.45838 0.55642
 O284 O 0.06802 0.48349 0.51029
 O285 O 0.03443 0.56509 0.50142
 O286 O -0.03391 0.53867 0.54791
 C287 C -0.00736 0.37470 0.41037
 C288 C -0.13430 0.43488 0.46699
 C289 C 0.03459 0.49278 0.34985
 O290 O 0.12516 0.48769 0.43196
 O291 O 0.12099 0.55504 0.48135
 O292 O 0.10215 0.55684 0.55808
 C293 C 0.12987 0.56540 0.52370
 O294 O -0.08307 0.59499 0.43355
 Zr295 Zr -0.03557 0.57708 0.48685
 O296 O 0.02792 0.59110 0.58855
 O297 O 0.07638 0.58730 0.41504
 O298 O -0.00564 0.63387 0.45002
 O299 O -0.09835 0.60285 0.51571
 O300 O -0.01831 0.62797 0.53576
 C301 C 0.00571 0.62670 0.57313
 O302 O 0.08216 0.49266 0.60927
 O303 O -0.07948 0.40919 0.57160
 O304 O 0.00413 0.51697 0.62816
 O305 O -0.06475 0.48155 0.61203
 O306 O 0.00375 0.36029 0.53297
 O307 O 0.07439 0.39883 0.55727
 C308 C -0.03585 0.50016 0.64026
 H309 H -0.05372 0.40357 0.48517
 H310 H 0.10075 0.47681 0.51834
 H311 H -0.04986 0.55629 0.57263
 H312 H -0.00792 0.55704 0.40370
 H313 H 0.09777 0.36524 0.47301
 H314 H 0.14360 0.50889 0.41182
 H315 H 0.10706 0.58414 0.39967
 H316 H -0.02243 0.66245 0.45942
 H317 H 0.02123 0.33307 0.52113
 H318 H -0.11038 0.41159 0.58669
 H319 H -0.14464 0.48953 0.58060
 H320 H -0.09806 0.63725 0.51220
 H321 H 0.08703 0.36739 0.55100
 H322 H 0.08970 0.51657 0.63268
 H323 H -0.09320 0.48416 0.35662
 H324 H -0.08882 0.62901 0.43392
 Zr325 Zr 0.46161 -0.02077 -0.06652
 O326 O 0.41807 0.01517 -0.11338
 O327 O 0.46591 -0.08531 -0.09670
 O328 O 0.49535 -0.01921 -0.13215
 O329 O 0.37523 -0.04761 0.01440
 O330 O 0.56694 0.00985 -0.11478
 O331 O 0.39365 -0.05088 -0.06239
 O332 O 0.51545 -0.12338 -0.04779
 O333 O 0.53117 -0.03867 -0.05373
 O334 O 0.46269 -0.06182 -0.00639
 O335 O 0.49840 0.04225 -0.06112
 O336 O 0.42999 0.02036 -0.01527
 Zr337 Zr 0.53920 0.02503 0.06749
 Zr338 Zr 0.56683 0.02379 -0.04408
 Zr339 Zr 0.43498 -0.02010 0.04538
 Zr340 Zr 0.53153 -0.07753 0.00701
 O341 O 0.37611 0.01916 0.06555
 O342 O 0.59563 -0.10116 -0.02063
 O343 O 0.50335 -0.03898 0.06222
 O344 O 0.57019 -0.01648 0.01634
 O345 O 0.53927 0.06615 0.00736
 O346 O 0.46996 0.04266 0.05363
 C347 C 0.48986 -0.12049 -0.08435
 C348 C 0.36610 -0.05893 -0.02754
 C349 C 0.53705 -0.00659 -0.14327
 O350 O 0.62777 -0.01386 -0.06097
 O351 O 0.62486 0.05497 -0.01260
 O352 O 0.60630 0.05631 0.06415
 C353 C 0.63385 0.06528 0.02972
 O354 O 0.42166 0.10058 -0.05935
 Zr355 Zr 0.46997 0.08116 -0.00732
 O356 O 0.53615 0.09185 0.09411
 O357 O 0.58206 0.08673 -0.07958
 O358 O 0.50030 0.13654 -0.04591
 O359 O 0.41014 0.11109 0.02367
 O360 O 0.49324 0.13085 0.04007
 C361 C 0.51753 0.12861 0.07723
 O362 O 0.58349 -0.00973 0.11461
 O363 O 0.41854 -0.08451 0.07767
 O364 O 0.50689 0.02102 0.13357
 O365 O 0.43727 -0.01303 0.11737
 O366 O 0.50110 -0.13743 0.03808
 O367 O 0.57198 -0.10127 0.06378
 C368 C 0.46674 0.00475 0.14554
 H369 H 0.44522 -0.09137 -0.00900
 H370 H 0.60265 -0.02429 0.02450
 H371 H 0.45516 0.06136 0.07827
 H372 H 0.49704 0.06023 -0.09044
 H373 H 0.59438 -0.13567 -0.02121
 H374 H 0.64680 0.00654 -0.08139
 H375 H 0.61256 0.08233 -0.09500
 H376 H 0.48511 0.16580 -0.03588
 H377 H 0.51779 -0.16495 0.02581
 H378 H 0.38810 -0.08049 0.09334
 H379 H 0.35721 -0.00117 0.08613
 H380 H 0.41287 0.14539 0.02032
 H381 H 0.58439 -0.13271 0.05705
 H382 H 0.59281 0.01359 0.13795
 H383 H 0.40885 -0.00780 -0.13708
 H384 H 0.41631 0.13465 -0.05835
 Zr385 Zr 0.53695 0.53153 -0.06892
 O386 O 0.58238 0.49876 -0.11631
 O387 O 0.52976 0.59662 -0.09868
 O388 O 0.50373 0.52736 -0.13474
 O389 O 0.62160 0.55886 0.01200
 O390 O 0.43367 0.49457 -0.11698
 O391 O 0.60459 0.56246 -0.06497
 O392 O 0.47775 0.63137 -0.04991
 O393 O 0.46650 0.54595 -0.05623
 O394 O 0.53337 0.57178 -0.00872
 O395 O 0.50346 0.46668 -0.06293
 O396 O 0.56958 0.49169 -0.01692
 Zr397 Zr 0.45954 0.48044 0.06588
 Zr398 Zr 0.43410 0.48162 -0.04616
 Zr399 Zr 0.56193 0.53100 0.04374
 Zr400 Zr 0.46355 0.58392 0.00466
 O401 O 0.62200 0.49447 0.06542
 O402 O 0.39871 0.60504 -0.02297
 O403 O 0.49245 0.54621 0.06028
 O404 O 0.42768 0.52094 0.01416
 O405 O 0.46278 0.44020 0.00572
 O406 O 0.52987 0.46664 0.05222
 C407 C 0.50396 0.63045 -0.08631
 C408 C 0.63190 0.56956 -0.03011
 C409 C 0.46296 0.51201 -0.14583
 O410 O 0.37197 0.51712 -0.06326
 O411 O 0.37732 0.44690 -0.01611
 O412 O 0.39428 0.44437 0.06080
 C413 C 0.36804 0.43457 0.02570
 O414 O 0.58264 0.41224 -0.06061
 Zr415 Zr 0.53292 0.42897 -0.00870
 O416 O 0.46671 0.41391 0.09328
 O417 O 0.42249 0.41809 -0.08108
 O418 O 0.50567 0.37219 -0.04652
 O419 O 0.59420 0.40238 0.02225
 O420 O 0.51224 0.37818 0.03919
 C421 C 0.48789 0.37865 0.07654
 O422 O 0.41168 0.51123 0.11222
 O423 O 0.57493 0.59639 0.07448
 O424 O 0.49072 0.48741 0.13253
 O425 O 0.55969 0.52332 0.11609
 O426 O 0.49130 0.64447 0.03584
 O427 O 0.42102 0.60506 0.06105
 C428 C 0.53064 0.50429 0.14456
 H429 H 0.55001 0.60186 -0.01162
 H430 H 0.39471 0.52699 0.02200
 H431 H 0.54536 0.44873 0.07711
 H432 H 0.50611 0.44882 -0.09200
 H433 H 0.39827 0.63958 -0.02335
 H434 H 0.35389 0.49624 -0.08358
 H435 H 0.39208 0.42088 -0.09682
 H436 H 0.52235 0.34373 -0.03632
 H437 H 0.47365 0.67153 0.02369
 H438 H 0.60552 0.59395 0.08988
 H439 H 0.64021 0.51607 0.08486
 H440 H 0.59339 0.36799 0.01932
 H441 H 0.40819 0.63647 0.05468
 H442 H 0.40366 0.48690 0.13543
 H443 H 0.59027 0.52249 -0.14017
 H444 H 0.58946 0.37842 -0.05950
 Zr445 Zr 0.03141 1.04767 0.43800
 O446 O 0.07628 1.02545 0.38423
 O447 O 0.01987 1.11774 0.41973
 O448 O -0.00205 1.04471 0.37212
 O449 O 0.12053 1.06578 0.51662
 O450 O -0.06926 1.00567 0.38779
 O451 O 0.09903 1.07782 0.44164
 O452 O -0.02987 1.14490 0.47516
 O453 O -0.03899 1.05807 0.45396
 O454 O 0.02899 1.08098 0.50220
 O455 O 0.00182 0.98048 0.43980
 O456 O 0.06696 1.00314 0.48466
 Zr457 Zr -0.03910 0.98093 0.56952
 Zr458 Zr -0.06768 0.99122 0.45845
 Zr459 Zr 0.06134 1.03639 0.54885
 Zr460 Zr -0.04099 1.08863 0.51955
 O461 O 0.12217 0.99918 0.56704
 O462 O -0.10671 1.11074 0.49480
 O463 O -0.00797 1.04745 0.56954
 O464 O -0.07433 1.02404 0.52263
 O465 O -0.03650 0.94619 0.50615
 O466 O 0.03133 0.97065 0.55340
 C467 C -0.00497 1.14979 0.43874
 C468 C 0.12867 1.08024 0.47505
 C469 C -0.04080 1.02561 0.35976
 O470 O -0.13017 1.02749 0.44471
 O471 O -0.12272 0.95265 0.48618
 O472 O -0.10105 0.94044 0.56107
 C473 C -0.12832 0.93374 0.52605
 O474 O 0.08113 0.92542 0.43496
 Zr475 Zr 0.03336 0.93802 0.48978
 O476 O -0.02748 0.91440 0.59355
 O477 O -0.07893 0.92985 0.41971
 O478 O 0.00567 0.88391 0.44864
 O479 O 0.09718 0.91271 0.51632
 O480 O 0.01592 0.88234 0.53548
 C481 C -0.00647 0.88057 0.57431
 O482 O -0.08859 1.00448 0.61833
 O483 O 0.07582 1.09969 0.58306
 O484 O -0.00769 0.98547 0.63602
 O485 O 0.05988 1.02447 0.62056
 O486 O -0.01495 1.14500 0.55882
 O487 O -0.08344 1.09904 0.57897
 C488 C 0.03173 1.00313 0.64833
 H489 H 0.04520 1.11141 0.50213
 H490 H -0.10735 1.02777 0.53167
 H491 H 0.04809 0.95167 0.57663
 H492 H 0.00470 0.96505 0.40942
 H493 H -0.10958 1.14455 0.50099
 H494 H -0.14853 1.00774 0.42355
 H495 H -0.10999 0.93248 0.40521
 H496 H 0.02257 0.85490 0.45672
 H497 H -0.03557 1.17216 0.55351
 H498 H 0.10679 1.09602 0.59745
 H499 H 0.14038 1.01956 0.58773
 H500 H 0.09708 0.87839 0.51272
 H501 H -0.09864 1.12994 0.57691
 H502 H -0.09496 0.97771 0.63928
 H503 H 0.08166 1.05266 0.36350
 H504 H 0.08914 0.89185 0.43434
 Zr505 Zr 0.71135 0.27949 0.19258
 O506 O 0.73313 0.32302 0.13715
 O507 O 0.64143 0.26809 0.17754
 O508 O 0.71030 0.24445 0.12776
 O509 O 0.69451 0.37084 0.26939
 O510 O 0.74918 0.17693 0.14306
 O511 O 0.68039 0.34673 0.19577
 O512 O 0.61501 0.22026 0.23543
 O513 O 0.70026 0.20964 0.21139
 O514 O 0.68012 0.27955 0.25809
 O515 O 0.77760 0.24848 0.19184
 O516 O 0.75764 0.31624 0.23552
 Zr517 Zr 0.78098 0.21208 0.32309
 Zr518 Zr 0.76634 0.17969 0.21345
 Zr519 Zr 0.72656 0.31299 0.30120
 Zr520 Zr 0.67193 0.21027 0.27827
 O521 O 0.76522 0.37425 0.31422
 O522 O 0.64812 0.14367 0.25753
 O523 O 0.71524 0.24442 0.32500
 O524 O 0.73572 0.17612 0.27934
 O525 O 0.81359 0.21161 0.25803
 O526 O 0.79171 0.28191 0.30369
 C527 C 0.60983 0.24399 0.19828
 C528 C 0.67783 0.37706 0.22857
 C529 C 0.72814 0.20507 0.11537
 O530 O 0.72851 0.11758 0.20228
 O531 O 0.80265 0.12402 0.24305
 O532 O 0.81500 0.14596 0.31768
 C533 C 0.81926 0.11702 0.28362
 O534 O 0.83290 0.32639 0.18091
 Zr535 Zr 0.82195 0.28121 0.23853
 O536 O 0.84918 0.22252 0.34182
 O537 O 0.82638 0.16531 0.17340
 O538 O 0.87415 0.25044 0.19670
 O539 O 0.84896 0.34613 0.26051
 O540 O 0.87870 0.26655 0.28241
 C541 C 0.88188 0.24454 0.32128
 O542 O 0.75791 0.16682 0.37651
 O543 O 0.66545 0.32934 0.33881
 O544 O 0.78032 0.24693 0.38806
 O545 O 0.74095 0.31409 0.37187
 O546 O 0.61722 0.23877 0.31856
 O547 O 0.66296 0.17042 0.33994
 C548 C 0.76247 0.28659 0.39976
 H549 H 0.64985 0.29590 0.25897
 H550 H 0.73117 0.14350 0.28981
 H551 H 0.81169 0.29934 0.32531
 H552 H 0.79186 0.25007 0.16064
 H553 H 0.61462 0.14161 0.26535
 H554 H 0.74749 0.09815 0.18119
 H555 H 0.82221 0.13389 0.15996
 H556 H 0.90346 0.26756 0.20231
 H557 H 0.58972 0.21832 0.31504
 H558 H 0.66997 0.36084 0.35192
 H559 H 0.74643 0.39337 0.33576
 H560 H 0.88285 0.34593 0.25425
 H561 H 0.63185 0.15570 0.34002
 H562 H 0.78504 0.16093 0.39673
 H563 H 0.70562 0.32869 0.11734
 H564 H 0.86650 0.33318 0.17765
 Zr565 Zr 0.77513 0.72187 0.68621
 O566 O 0.74243 0.68140 0.63504
 O567 O 0.84033 0.72884 0.65683
 O568 O 0.77202 0.76404 0.62406
 O569 O 0.80291 0.63164 0.76370
 O570 O 0.73421 0.82972 0.64765
 O571 O 0.80543 0.65305 0.68748
 O572 O 0.87822 0.77574 0.70795
 O573 O 0.79042 0.79110 0.70314
 O574 O 0.81582 0.72065 0.74612
 O575 O 0.71073 0.75523 0.69553
 O576 O 0.73513 0.68627 0.73671
 Zr577 Zr 0.72575 0.79101 0.82597
 Zr578 Zr 0.72653 0.82291 0.71703
 Zr579 Zr 0.77495 0.68959 0.79731
 Zr580 Zr 0.82975 0.78916 0.76301
 O581 O 0.73813 0.62811 0.81522
 O582 O 0.85095 0.85490 0.73647
 O583 O 0.79123 0.75777 0.81744
 O584 O 0.76717 0.82511 0.77625
 O585 O 0.68458 0.79193 0.76673
 O586 O 0.71116 0.72160 0.80844
 C587 C 0.87578 0.75184 0.67004
 C588 C 0.81361 0.62389 0.72130
 C589 C 0.75524 0.80576 0.61765
 O590 O 0.76314 0.88531 0.70176
 O591 O 0.69511 0.87891 0.74929
 O592 O 0.69150 0.85799 0.82503
 C593 C 0.68305 0.88664 0.79104
 O594 O 0.65447 0.67710 0.69357
 Zr595 Zr 0.67277 0.72272 0.74816
 O596 O 0.65898 0.78329 0.85299
 O597 O 0.66174 0.83771 0.68560
 O598 O 0.61615 0.75305 0.71223
 O599 O 0.64709 0.65907 0.77599
 O600 O 0.62225 0.74046 0.79774
 C601 C 0.62324 0.76330 0.83592
 O602 O 0.75778 0.83412 0.87551
 O603 O 0.83984 0.67403 0.82789
 O604 O 0.73043 0.75453 0.88973
 O605 O 0.76751 0.68745 0.86923
 O606 O 0.88837 0.75787 0.79471
 O607 O 0.85314 0.82967 0.81959
 C608 C 0.74757 0.71399 0.89896
 H609 H 0.84553 0.70369 0.74243
 H610 H 0.77377 0.85756 0.78563
 H611 H 0.69308 0.70446 0.83226
 H612 H 0.69258 0.75514 0.66653
 H613 H 0.88537 0.85492 0.73521
 H614 H 0.74217 0.90584 0.68366
 H615 H 0.66352 0.86953 0.67206
 H616 H 0.58764 0.73615 0.72191
 H617 H 0.91634 0.77401 0.78250
 H618 H 0.83707 0.64257 0.84203
 H619 H 0.75888 0.60906 0.83505
 H620 H 0.61272 0.66022 0.77433
 H621 H 0.88484 0.84145 0.81289
 H622 H 0.73361 0.84133 0.89895
 H623 H 0.76636 0.67595 0.61091
 H624 H 0.62095 0.66950 0.69570
 Zr625 Zr 0.22701 0.20690 0.81242
 O626 O 0.25999 0.16281 0.86116
 O627 O 0.15972 0.21198 0.83845
 O628 O 0.22895 0.24031 0.87800
 O629 O 0.20224 0.11991 0.73392
 O630 O 0.26111 0.31088 0.86074
 O631 O 0.19719 0.13912 0.81023
 O632 O 0.12363 0.25964 0.78613
 O633 O 0.21020 0.27672 0.79865
 O634 O 0.18822 0.20827 0.75133
 O635 O 0.29111 0.24180 0.80651
 O636 O 0.26951 0.17483 0.76199
 Zr637 Zr 0.27704 0.28418 0.67756
 Zr638 Zr 0.27380 0.31055 0.78954
 Zr639 Zr 0.23057 0.17951 0.70100
 Zr640 Zr 0.17388 0.27758 0.73637
 O641 O 0.26992 0.12025 0.68217
 O642 O 0.14961 0.34083 0.76530
 O643 O 0.21309 0.24836 0.68249
 O644 O 0.23539 0.31545 0.72839
 O645 O 0.31697 0.28344 0.73799
 O646 O 0.29339 0.21428 0.69208
 C647 C 0.12435 0.23381 0.82264
 C648 C 0.19012 0.11113 0.77612
 C649 C 0.24365 0.28122 0.88940
 O650 O 0.23607 0.37161 0.80600
 O651 O 0.30622 0.36801 0.75888
 O652 O 0.31005 0.35103 0.68206
 C653 C 0.31819 0.37779 0.71715
 O654 O 0.35176 0.16706 0.80619
 Zr655 Zr 0.33118 0.21381 0.75273
 O656 O 0.34282 0.27953 0.64940
 O657 O 0.33622 0.32515 0.82510
 O658 O 0.38630 0.24603 0.78889
 O659 O 0.35895 0.15167 0.72446
 O660 O 0.38106 0.23400 0.70201
 C661 C 0.37881 0.25845 0.66434
 O662 O 0.24436 0.33030 0.63056
 O663 O 0.16712 0.16234 0.66855
 O664 O 0.27196 0.25183 0.61159
 O665 O 0.23846 0.18174 0.62906
 O666 O 0.11631 0.24865 0.70116
 O667 O 0.15416 0.32085 0.67981
 C668 C 0.25651 0.21111 0.60031
 H669 H 0.15874 0.19062 0.75307
 H670 H 0.22835 0.34826 0.72024
 H671 H 0.31182 0.19892 0.66757
 H672 H 0.30860 0.24000 0.83586
 H673 H 0.11523 0.34052 0.76361
 H674 H 0.25619 0.39067 0.82617
 H675 H 0.33230 0.35597 0.83992
 H676 H 0.41560 0.23138 0.77826
 H677 H 0.08824 0.26615 0.71082
 H678 H 0.17149 0.13143 0.65405
 H679 H 0.24975 0.10098 0.66227
 H680 H 0.39327 0.15402 0.72592
 H681 H 0.12285 0.33389 0.68570
 H682 H 0.26827 0.33911 0.60729
 H683 H 0.23623 0.15451 0.88477
 H684 H 0.38584 0.16245 0.80477
 Zr685 Zr 0.28624 0.77593 0.30959
 O686 O 0.27269 0.81858 0.36768
 O687 O 0.35694 0.76019 0.31694
 O688 O 0.28973 0.73966 0.37389
 O689 O 0.29999 0.86976 0.23469
 O690 O 0.24421 0.67590 0.36195
 O691 O 0.32025 0.84131 0.30559
 O692 O 0.37619 0.71358 0.25612
 O693 O 0.29205 0.70632 0.28891
 O694 O 0.31170 0.77714 0.24177
 O695 O 0.21850 0.74878 0.31514
 O696 O 0.23853 0.81689 0.27162
 Zr697 Zr 0.20205 0.71757 0.18426
 Zr698 Zr 0.22424 0.68016 0.29187
 Zr699 Zr 0.26357 0.81462 0.20357
 Zr700 Zr 0.31454 0.70831 0.21974
 O701 O 0.22588 0.87716 0.19347
 O702 O 0.33645 0.63988 0.23735
 O703 O 0.26917 0.74638 0.17796
 O704 O 0.24921 0.67798 0.22352
 O705 O 0.17514 0.71620 0.25187
 O706 O 0.19650 0.78717 0.20524
 C707 C 0.38584 0.73611 0.29265
 C708 C 0.32087 0.87307 0.27382
 C709 C 0.26921 0.70213 0.38801
 O710 O 0.26093 0.61700 0.30162
 O711 O 0.18636 0.62543 0.26258
 O712 O 0.16968 0.65078 0.18950
 C713 C 0.16856 0.61980 0.22230
 O714 O 0.17007 0.83001 0.33168
 Zr715 Zr 0.17233 0.78566 0.27310
 O716 O 0.13160 0.73103 0.17482
 O717 O 0.16509 0.66643 0.33353
 O718 O 0.12266 0.75731 0.31988
 O719 O 0.14754 0.85250 0.25341
 O720 O 0.11020 0.77552 0.23638
 C721 C 0.10158 0.75375 0.19874
 O722 O 0.21471 0.67417 0.12660
 O723 O 0.32291 0.83119 0.16300
 O724 O 0.20317 0.75368 0.11928
 O725 O 0.24773 0.81772 0.13349
 O726 O 0.36650 0.73560 0.17483
 O727 O 0.31517 0.67059 0.15670
 C728 C 0.22447 0.79141 0.10639
 H729 H 0.34254 0.79211 0.23856
 H730 H 0.25214 0.64571 0.21200
 H731 H 0.17575 0.80574 0.18507
 H732 H 0.20669 0.75038 0.34729
 H733 H 0.36866 0.63597 0.22573
 H734 H 0.24229 0.59776 0.32345
 H735 H 0.16919 0.63478 0.34687
 H736 H 0.09446 0.77705 0.31830
 H737 H 0.39274 0.71322 0.17441
 H738 H 0.31883 0.86351 0.15135
 H739 H 0.24426 0.89653 0.17156
 H740 H 0.11465 0.85471 0.26348
 H741 H 0.34498 0.65366 0.15365
 H742 H 0.18508 0.67164 0.10935
 H743 H 0.30222 0.82198 0.38494
 H744 H 0.13758 0.83967 0.33767
 Zr745 Zr 0.20449 0.77329 0.69068
 O746 O 0.22672 0.81779 0.63618
 O747 O 0.13453 0.76138 0.67386
 O748 O 0.20586 0.73935 0.62523
 O749 O 0.18542 0.86275 0.76909
 O750 O 0.24679 0.67287 0.63976
 O751 O 0.17387 0.84085 0.69441
 O752 O 0.10775 0.71153 0.72987
 O753 O 0.19463 0.70275 0.70744
 O754 O 0.17129 0.77117 0.75519
 O755 O 0.27173 0.74405 0.69178
 O756 O 0.24895 0.80950 0.73616
 Zr757 Zr 0.27144 0.70432 0.82234
 Zr758 Zr 0.26149 0.67445 0.71107
 Zr759 Zr 0.21571 0.80423 0.80065
 Zr760 Zr 0.16413 0.70112 0.77338
 O761 O 0.25256 0.86588 0.81676
 O762 O 0.14264 0.63490 0.74930
 O763 O 0.20493 0.73501 0.82260
 O764 O 0.22874 0.66850 0.77586
 O765 O 0.30637 0.70603 0.75840
 O766 O 0.28137 0.77469 0.80489
 C767 C 0.10267 0.73646 0.69349
 C768 C 0.17080 0.87046 0.72785
 C769 C 0.22519 0.70087 0.61223
 O770 O 0.22599 0.61145 0.69766
 O771 O 0.29911 0.61967 0.74103
 O772 O 0.30833 0.63991 0.81665
 C773 C 0.31489 0.61224 0.78194
 O774 O 0.32789 0.82189 0.68448
 Zr775 Zr 0.31412 0.77609 0.74102
 O776 O 0.33834 0.71575 0.84471
 O777 O 0.32279 0.66255 0.67210
 O778 O 0.36857 0.74609 0.70158
 O779 O 0.33779 0.84181 0.76441
 O780 O 0.36915 0.76274 0.78826
 C781 C 0.37123 0.73971 0.82681
 O782 O 0.24700 0.65695 0.87327
 O783 O 0.15270 0.81844 0.83595
 O784 O 0.26770 0.73817 0.88792
 O785 O 0.22746 0.80477 0.87171
 O786 O 0.10799 0.72723 0.81338
 O787 O 0.15402 0.65862 0.83310
 C788 C 0.24966 0.77784 0.89950
 H789 H 0.14085 0.78722 0.75550
 H790 H 0.22479 0.63549 0.78530
 H791 H 0.30003 0.79224 0.82752
 H792 H 0.28694 0.74670 0.66109
 H793 H 0.10898 0.63169 0.75598
 H794 H 0.24626 0.59303 0.67687
 H795 H 0.32009 0.63105 0.65847
 H796 H 0.39752 0.76299 0.70927
 H797 H 0.08096 0.70641 0.80868
 H798 H 0.15589 0.84981 0.84972
 H799 H 0.23241 0.88447 0.83754
 H800 H 0.37205 0.84236 0.76081
 H801 H 0.12321 0.64338 0.83157
 H802 H 0.27318 0.65151 0.89480
 H803 H 0.19945 0.82350 0.61604
 H804 H 0.36158 0.82886 0.68314
 Zr805 Zr 0.28724 0.20603 0.17826
 O806 O 0.25407 0.16176 0.13049
 O807 O 0.35320 0.21084 0.15053
 O808 O 0.28510 0.24001 0.11217
 O809 O 0.31121 0.11982 0.25972
 O810 O 0.25569 0.31168 0.12932
 O811 O 0.31688 0.13753 0.18287
 O812 O 0.38897 0.26075 0.20026
 O813 O 0.30420 0.27598 0.19127
 O814 O 0.32597 0.20743 0.23944
 O815 O 0.22384 0.24222 0.18285
 O816 O 0.24481 0.17421 0.22906
 Zr817 Zr 0.23680 0.28350 0.31185
 Zr818 Zr 0.24120 0.31100 0.19993
 Zr819 Zr 0.28305 0.17939 0.29057
 Zr820 Zr 0.34070 0.27664 0.25318
 O821 O 0.24383 0.11984 0.30976
 O822 O 0.36477 0.34100 0.22567
 O823 O 0.30096 0.24804 0.30783
 O824 O 0.27926 0.31497 0.26123
 O825 O 0.19786 0.28308 0.25083
 O826 O 0.22005 0.21397 0.29765
 C827 C 0.38776 0.23497 0.16384
 C828 C 0.32344 0.10999 0.21808
 C829 C 0.27166 0.28162 0.10070
 O830 O 0.27926 0.37226 0.18420
 O831 O 0.20720 0.36846 0.22950
 O832 O 0.20333 0.35003 0.30630
 C833 C 0.19441 0.37707 0.27123
 O834 O 0.16600 0.16473 0.18412
 Zr835 Zr 0.18359 0.21364 0.23606
 O836 O 0.17005 0.27990 0.33774
 O837 O 0.17939 0.32566 0.16317
 O838 O 0.12936 0.24351 0.19629
 O839 O 0.15308 0.15363 0.26687
 O840 O 0.13270 0.23766 0.28247
 C841 C 0.13398 0.26177 0.31985
 O842 O 0.26914 0.32874 0.35925
 O843 O 0.34646 0.16363 0.32397
 O844 O 0.23885 0.24999 0.37817
 O845 O 0.27322 0.18018 0.36252
 O846 O 0.39931 0.24652 0.28601
 O847 O 0.36189 0.31786 0.31011
 C848 C 0.25411 0.20924 0.39048
 H849 H 0.35553 0.18994 0.23750
 H850 H 0.28632 0.34766 0.26941
 H851 H 0.20070 0.19891 0.32187
 H852 H 0.20660 0.24062 0.15336
 H853 H 0.39919 0.34016 0.22615
 H854 H 0.25961 0.39143 0.16342
 H855 H 0.18370 0.35636 0.14781
 H856 H 0.09998 0.22825 0.20606
 H857 H 0.42714 0.26360 0.27478
 H858 H 0.34252 0.13272 0.33901
 H859 H 0.26381 0.10058 0.33015
 H860 H 0.11897 0.15655 0.26332
 H861 H 0.39351 0.33024 0.30421
 H862 H 0.24482 0.33766 0.38192
 H863 H 0.27791 0.15328 0.10715
 H864 H 0.13203 0.15923 0.18455
 Zr865 Zr 0.72047 0.71270 0.31167
 O866 O 0.75207 0.66870 0.36140
 O867 O 0.65301 0.71818 0.33701
 O868 O 0.72270 0.74626 0.37668
 O869 O 0.69748 0.62555 0.23317
 O870 O 0.75378 0.81728 0.35900
 O871 O 0.69124 0.64458 0.30934
 O872 O 0.61723 0.76600 0.28463
 O873 O 0.70412 0.78261 0.29744
 O874 O 0.68241 0.71398 0.25029
 O875 O 0.78459 0.74770 0.30676
 O876 O 0.76377 0.68027 0.26242
 Zr877 Zr 0.77369 0.78953 0.17758
 Zr878 Zr 0.76787 0.81642 0.28873
 Zr879 Zr 0.72588 0.68525 0.20093
 Zr880 Zr 0.66854 0.78332 0.23486
 O881 O 0.76536 0.62594 0.18245
 O882 O 0.64426 0.84692 0.26302
 O883 O 0.70923 0.75414 0.18185
 O884 O 0.73054 0.82103 0.22707
 O885 O 0.81219 0.78869 0.23875
 O886 O 0.78916 0.71958 0.19296
 C887 C 0.61774 0.74034 0.32141
 C888 C 0.68504 0.61648 0.27515
 C889 C 0.73732 0.78723 0.38755
 O890 O 0.72994 0.87781 0.30352
 O891 O 0.80193 0.87373 0.25973
 O892 O 0.80757 0.85638 0.18318
 C893 C 0.81558 0.88312 0.21850
 O894 O 0.84412 0.67218 0.30852
 Zr895 Zr 0.82565 0.71903 0.25439
 O896 O 0.84062 0.78452 0.15186
 O897 O 0.82947 0.83081 0.32582
 O898 O 0.88003 0.75054 0.29222
 O899 O 0.85373 0.65688 0.22644
 O900 O 0.87717 0.73901 0.20568
 C901 C 0.87616 0.76348 0.16807
 O902 O 0.74310 0.83541 0.12902
 O903 O 0.66275 0.66830 0.16771
 O904 O 0.77014 0.75574 0.11202
 O905 O 0.73432 0.68685 0.12954
 O906 O 0.61182 0.75388 0.19874
 O907 O 0.64925 0.82633 0.17797
 C908 C 0.75399 0.71513 0.10102
 H909 H 0.65294 0.69627 0.25184
 H910 H 0.72392 0.85384 0.21855
 H911 H 0.80813 0.70401 0.16898
 H912 H 0.80163 0.74604 0.33638
 H913 H 0.60989 0.84668 0.26112
 H914 H 0.74928 0.89675 0.32456
 H915 H 0.82536 0.86156 0.34073
 H916 H 0.90944 0.73529 0.28277
 H917 H 0.58338 0.77075 0.20843
 H918 H 0.66696 0.63719 0.15358
 H919 H 0.74529 0.60644 0.16265
 H920 H 0.88799 0.65875 0.22925
 H921 H 0.61765 0.83891 0.18332
 H922 H 0.76796 0.84370 0.10659
 H923 H 0.72779 0.66073 0.38462
 H924 H 0.87808 0.66665 0.30769
 Zr925 Zr 0.77240 0.29577 0.82348
 O926 O 0.74791 0.33946 0.87692
 O927 O 0.84068 0.28570 0.84235
 O928 O 0.77511 0.25927 0.88835
 O929 O 0.79101 0.38472 0.74314
 O930 O 0.73792 0.19106 0.87279
 O931 O 0.80476 0.36282 0.81786
 O932 O 0.86923 0.23775 0.78614
 O933 O 0.78379 0.22572 0.80620
 O934 O 0.80455 0.29499 0.75825
 O935 O 0.70671 0.26379 0.82463
 O936 O 0.72736 0.33224 0.77872
 Zr937 Zr 0.70342 0.22720 0.69392
 Zr938 Zr 0.71810 0.19493 0.80346
 Zr939 Zr 0.75856 0.32725 0.71304
 Zr940 Zr 0.81367 0.22579 0.74042
 O941 O 0.72004 0.38806 0.69716
 O942 O 0.83680 0.15957 0.76377
 O943 O 0.76992 0.25838 0.69207
 O944 O 0.74945 0.19181 0.73817
 O945 O 0.67094 0.22729 0.75891
 O946 O 0.69296 0.29711 0.71143
 C947 C 0.87277 0.26159 0.82355
 C948 C 0.80846 0.39175 0.78331
 C949 C 0.75963 0.21843 0.90027
 O950 O 0.75475 0.13207 0.81554
 O951 O 0.68326 0.13822 0.77374
 O952 O 0.67013 0.16116 0.69926
 C953 C 0.66710 0.13145 0.73294
 O954 O 0.65512 0.34351 0.83390
 Zr955 Zr 0.66330 0.29729 0.77730
 O956 O 0.63352 0.23789 0.67781
 O957 O 0.65786 0.18143 0.84360
 O958 O 0.61089 0.26867 0.82082
 O959 O 0.63654 0.36185 0.75315
 O960 O 0.60541 0.28296 0.73638
 C961 C 0.60092 0.26012 0.69878
 O962 O 0.72500 0.18136 0.64089
 O963 O 0.82024 0.34324 0.67592
 O964 O 0.70590 0.25999 0.62779
 O965 O 0.74713 0.32628 0.64147
 O966 O 0.86877 0.25437 0.70033
 O967 O 0.82597 0.18474 0.68067
 C968 C 0.72605 0.29798 0.61435
 H969 H 0.83496 0.31106 0.75739
 H970 H 0.75431 0.15926 0.72810
 H971 H 0.67317 0.31405 0.68902
 H972 H 0.69262 0.26505 0.85591
 H973 H 0.87086 0.15829 0.75876
 H974 H 0.73564 0.11293 0.83707
 H975 H 0.66195 0.15010 0.85762
 H976 H 0.58238 0.28754 0.81652
 H977 H 0.89702 0.23583 0.70707
 H978 H 0.81594 0.37446 0.66166
 H979 H 0.73922 0.40666 0.67526
 H980 H 0.60312 0.36296 0.76150
 H981 H 0.85748 0.17097 0.68230
 H982 H 0.69772 0.17582 0.62080
 H983 H 0.77483 0.34567 0.89724
 H984 H 0.62193 0.35194 0.83736
 C985 C 0.41188 0.99328 0.29728
 C986 C 0.45741 0.98548 0.30635
 H987 H 0.38920 1.00081 0.32633
 H988 H 0.48133 0.97509 0.27937
 C989 C -0.08770 0.50714 0.78796
 C990 C -0.05866 0.47328 0.80350
 H991 H -0.09141 0.53784 0.80938
 H992 H -0.05205 0.44263 0.78287
 C993 C 0.09069 -0.00789 0.79507
 C994 C 0.06041 0.02380 0.81187
 H995 H 0.09811 -0.03755 0.81736
 H996 H 0.05020 0.05353 0.79104
 C997 C 0.58846 0.49450 0.29272
 C998 C 0.55975 0.52676 0.31085
 H999 H 0.59412 0.46341 0.31361
 H1000 H 0.55084 0.55768 0.29114
 C1001 C 0.59247 0.50183 0.20286
 C1002 C 0.54646 0.49994 0.19378
 H1003 H 0.61565 0.50529 0.17332
 H1004 H 0.52146 0.49374 0.22120
 C1005 C 0.09392 1.00118 0.70561
 C1006 C 0.04808 0.99713 0.69698
 H1007 H 0.11663 1.00725 0.67611
 H1008 H 0.02381 0.98763 0.72414
 C1009 C -0.09703 0.49935 0.69979
 C1010 C -0.05154 0.50438 0.68928
 H1011 H -0.12063 0.49238 0.67154
 H1012 H -0.02673 0.51393 0.71556
 C1013 C 0.41508 -0.01714 0.20892
 C1014 C 0.45087 0.00911 0.19412
 H1015 H 0.40319 -0.04453 0.18607
 H1016 H 0.46492 0.03638 0.21564
 C1017 C 0.29384 0.39983 -0.00205
 C1018 C 0.32519 0.40539 0.03256
 H1019 H 0.29838 0.42131 -0.03278
 H1020 H 0.32128 0.38643 0.06481
 C1021 C -0.20218 0.89769 0.49918
 C1022 C -0.16696 0.89969 0.53035
 H1023 H -0.20332 0.92452 0.47259
 H1024 H -0.16343 0.87422 0.55766
 C1025 C -0.20295 0.10089 1.00274
 C1026 C -0.16743 0.10405 0.97189
 H1027 H -0.19895 0.07654 1.03133
 H1028 H -0.17010 0.12661 0.94191
 C1029 C 0.29406 0.59721 0.49892
 C1030 C 0.32868 0.59737 0.46696
 H1031 H 0.29895 0.57565 0.52950
 H1032 H 0.32499 0.61550 0.43440
 C1033 C 0.20838 0.59385 0.50102
 C1034 C 0.17422 0.59040 0.53316
 H1035 H 0.20460 0.57335 0.46986
 H1036 H 0.17719 0.60778 0.56602
 C1037 C 0.71151 0.09569 0.00634
 C1038 C 0.67783 0.09124 0.03890
 H1039 H 0.70796 0.07483 -0.02462
 H1040 H 0.68063 0.10898 0.07161
 C1041 C 0.71172 0.88566 0.50077
 C1042 C 0.68510 0.90226 0.46565
 H1043 H 0.69961 0.89213 0.53563
 H1044 H 0.69609 0.89748 0.43015
 C1045 C 0.20826 0.39313 0.99126
 C1046 C 0.17194 0.38690 0.96204
 H1047 H 0.20423 0.41901 1.01817
 H1048 H 0.17428 0.36274 0.93364
 C1049 C 0.00658 0.29315 0.39074
 C1050 C -0.00821 0.33541 0.37881
 H1051 H 0.02164 0.28791 0.42469
 H1052 H -0.02203 0.34150 0.34449
 C1053 C 0.49273 -0.20270 -0.09795
 C1054 C 0.48733 -0.16009 -0.11473
 H1055 H 0.49962 -0.20711 -0.06127
 H1056 H 0.48007 -0.15439 -0.15109
 C1057 C -0.00149 -0.21693 1.08296
 C1058 C 0.00620 -0.17424 1.09932
 H1059 H -0.00881 -0.22176 1.04657
 H1060 H 0.01369 -0.17031 1.13577
 C1061 C 0.50090 0.28815 0.58127
 C1062 C 0.50394 0.33019 0.59975
 H1063 H 0.49828 0.28467 0.54403
 H1064 H 0.50792 0.33379 0.63679
 C1065 C 0.49721 1.20266 0.58434
 C1066 C 0.49268 1.16129 0.60500
 H1067 H 0.50309 1.20455 0.54726
 H1068 H 0.48665 1.15829 0.64193
 C1069 C -0.01238 0.69653 1.09246
 C1070 C 0.01570 0.68034 1.05953
 H1071 H -0.03955 0.67386 1.10598
 H1072 H 0.04279 0.70240 1.04511
 C1073 C 0.49638 0.71286 -0.09899
 C1074 C 0.50529 0.67109 -0.11612
 H1075 H 0.48639 0.71566 -0.06285
 H1076 H 0.51560 0.66708 -0.15199
 C1077 C 0.01413 1.20640 0.37835
 C1078 C -0.00529 1.19627 0.41900
 H1079 H 0.03068 1.17885 0.35866
 H1080 H -0.02388 1.22265 0.43827
 C1081 C 0.76264 0.65402 0.95705
 C1082 C 0.74105 0.69398 0.94568
 H1083 H 0.78630 0.63897 0.93190
 H1084 H 0.71619 0.70978 0.96899
 C1085 C 0.26727 0.15228 0.45344
 C1086 C 0.24664 0.19212 0.43900
 H1087 H 0.29159 0.13644 0.42946
 H1088 H 0.22162 0.20962 0.46089
 C1089 C 0.74187 0.34050 0.46146
 C1090 C 0.76821 0.30432 0.44758
 H1091 H 0.71401 0.35155 0.43873
 H1092 H 0.79579 0.29096 0.46927
 C1093 C 0.25002 0.84239 0.95431
 C1094 C 0.25582 0.79619 0.94706
 H1095 H 0.24286 0.86436 0.92453
 H1096 H 0.26571 0.77281 0.97481
 C1097 C 0.25554 0.83736 0.04199
 C1098 C 0.22237 0.80779 0.05767
 H1099 H 0.28617 0.84194 0.06323
 H1100 H 0.19215 0.80010 0.03693
 C1101 C 0.75507 0.34306 0.54805
 C1102 C 0.72425 0.31181 0.56478
 H1103 H 0.78344 0.35292 0.57056
 H1104 H 0.69586 0.29982 0.54352
 C1105 C 0.25313 0.14942 0.54245
 C1106 C 0.26162 0.19466 0.55178
 H1107 H 0.24288 0.12691 0.57103
 H1108 H 0.27432 0.21834 0.52538
 C1109 C 0.74946 0.65188 0.04484
 C1110 C 0.76008 0.69702 0.05339
 H1111 H 0.73775 0.63035 0.07357
 H1112 H 0.77517 0.71934 0.02708
 C1113 C 0.14999 0.53805 0.24326
 C1114 C 0.14569 0.57432 0.21336
 H1115 H 0.17364 0.54239 0.27203
 H1116 H 0.12535 0.57172 0.18232
 C1117 C 0.65330 0.04797 0.74952
 C1118 C 0.64263 0.08673 0.72499
 H1119 H 0.68221 0.05000 0.77339
 H1120 H 0.61436 0.08657 0.70050
 C1121 C 0.84927 0.04101 0.25615
 C1122 C 0.84610 0.07311 0.29032
 H1123 H 0.82794 0.04615 0.22570
 H1124 H 0.86477 0.06880 0.32237
 C1125 C 0.34619 0.53729 0.75413
 C1126 C 0.34360 0.56943 0.78814
 H1127 H 0.32366 0.54175 0.72445
 H1128 H 0.36402 0.56584 0.81926
 C1129 C 0.34848 0.45248 0.74645
 C1130 C 0.34444 0.42229 0.71075
 H1131 H 0.32819 0.44541 0.77744
 H1132 H 0.36198 0.42871 0.67815
 C1133 C 0.85139 0.95535 0.25006
 C1134 C 0.84362 0.92706 0.21313
 H1135 H 0.83363 0.94691 0.28221
 H1136 H 0.85901 0.93491 0.17977
 C1137 C 0.65557 0.96316 0.76263
 C1138 C 0.65600 0.93090 0.79750
 H1139 H 0.68042 0.95851 0.73469
 H1140 H 0.63395 0.93461 0.82764
 C1141 C 0.15809 0.45207 0.24483
 C1142 C 0.16530 0.41966 0.27867
 H1143 H 0.17792 0.44854 0.21305
 H1144 H 0.14741 0.42228 0.31152
 C1145 C 0.04055 0.23715 0.82889
 C1146 C 0.08168 0.22916 0.84859
 H1147 H 0.03891 0.24463 0.79209
 H1148 H 0.08452 0.22193 0.88519
 C1149 C 0.53378 0.74828 0.33277
 C1150 C 0.57544 0.73565 0.34859
 H1151 H 0.53032 0.76204 0.29792
 H1152 H 0.57893 0.72267 0.38368
 C1153 C 0.55446 0.26275 0.13843
 C1154 C 0.56397 0.24275 0.17886
 H1155 H 0.58157 0.28121 0.11952
 H1156 H 0.53815 0.22231 0.19734
 C1157 C 0.04614 0.75659 0.63445
 C1158 C 0.05613 0.73660 0.67473
 H1159 H 0.07394 0.77235 0.61417
 H1160 H 0.02954 0.71839 0.69441
 C1161 C 0.95933 0.75587 0.64959
 C1162 C 0.91515 0.74965 0.63768
 H1163 H 0.96689 0.76651 0.68465
 H1164 H 0.90741 0.73999 0.60235
 C1165 C 0.46909 0.24906 0.14804
 C1166 C 0.42827 0.23306 0.13418
 H1167 H 0.47200 0.26437 0.18211
 H1168 H 0.42414 0.21922 0.09965
 C1169 C 0.44892 0.76117 0.34056
 C1170 C 0.43362 0.73367 0.30728
 H1171 H 0.42623 0.78821 0.35402
 H1172 H 0.45575 0.70683 0.29279
 C1173 C 0.95651 0.25192 0.82843
 C1174 C 0.91582 0.26082 0.84843
 H1175 H 0.95826 0.24555 0.79151
 H1176 H 0.91345 0.26671 0.88524
 C1177 C 0.59860 0.99470 0.70795
 C1178 C 0.55619 1.00907 0.69409
 H1179 H 0.62051 0.97771 0.68252
 H1180 H 0.53354 1.02753 0.71768
 C1181 C 0.09160 0.48514 1.20200
 C1182 C 0.05932 0.51473 1.18492
 H1183 H 0.10049 0.45543 1.18068
 H1184 H 0.04750 0.54395 1.20536
 C1185 C -0.08839 0.00616 1.20952
 C1186 C -0.05332 -0.02134 1.19491
 H1187 H -0.09963 0.03403 1.18661
 H1188 H -0.03992 -0.04892 1.21682
 C1189 C 0.40848 0.50400 0.70696
 C1190 C 0.44465 0.47795 0.69271
 H1191 H 0.39607 0.53122 0.68387
 H1192 H 0.45903 0.45095 0.71472
 C1193 C 0.40900 0.48941 -0.20667
 C1194 C 0.44641 0.51488 -0.19437
 H1195 H 0.39516 0.46485 -0.18144
 H1196 H 0.46200 0.53962 -0.21825
 C1197 C -0.08730 0.99461 0.29610
 C1198 C -0.05532 1.02593 0.31043
 H1199 H -0.09658 0.96665 0.31983
 H1200 H -0.04393 1.05390 0.28774
 C1201 C 0.09652 0.49366 0.29124
 C1202 C 0.05094 0.48799 0.30095
 H1203 H 0.11954 0.50045 0.32002
 H1204 H 0.02647 0.47939 0.27405
 C1205 C 0.59067 0.01364 -0.20512
 C1206 C 0.55401 -0.01205 -0.19138
 H1207 H 0.60248 0.04070 -0.18185
 H1208 H 0.54000 -0.03915 -0.21313
 C1209 C 0.70922 0.59520 -0.00309
 C1210 C 0.67743 0.59381 -0.03748
 H1211 H 0.70234 0.57400 0.02740
 H1212 H 0.68336 0.61235 -0.06968
 C1213 C 0.21123 1.09522 0.49429
 C1214 C 0.17476 1.10272 0.46591
 H1215 H 0.20666 1.06928 0.52145
 H1216 H 0.17758 1.12691 0.43721
 C1217 C 0.20852 -0.09995 1.00103
 C1218 C 0.18057 -0.09103 1.03773
 H1219 H 0.20010 -0.08330 0.96834
 H1220 H 0.18830 -0.10513 1.07161
 C1221 C 0.70956 0.40566 0.50512
 C1222 C 0.67943 0.41264 0.54025
 H1223 H 0.70411 0.42492 0.47316
 H1224 H 0.68411 0.39570 0.57341
 C1225 C -0.20674 0.40185 0.49860
 C1226 C -0.17851 0.40836 0.46144
 H1227 H -0.19876 0.42078 0.52993
 H1228 H -0.18611 0.39229 0.42860
 C1229 C 0.29356 -0.09725 0.00040
 C1230 C 0.32269 -0.08625 -0.03511
 H1231 H 0.30012 -0.08136 0.03367
 H1232 H 0.31684 -0.09998 -0.06932
 C1233 C 0.29654 1.08670 0.49997
 C1234 C 0.32850 1.08166 0.53411
 H1235 H 0.30073 1.06521 0.46950
 H1236 H 0.32523 1.10110 0.56588
 C1237 C -0.20564 0.59020 1.00269
 C1238 C -0.16804 0.59435 1.03013
 H1239 H -0.20517 0.56339 0.97639
 H1240 H -0.16710 0.62040 1.05699
 C1241 C -0.00499 0.71030 0.58469
 C1242 C 0.00727 0.66847 0.60127
 H1243 H -0.01845 0.71296 0.54979
 H1244 H 0.01985 0.66441 0.63614
 C1245 C 0.51377 0.21222 0.08483
 C1246 C 0.52305 0.17073 0.10348
 H1247 H 0.50432 0.21463 0.04859
 H1248 H 0.53206 0.16705 0.13954
 C1249 C -0.01061 0.20079 0.88610
 C1250 C 0.00811 0.19169 0.92710
 H1251 H -0.02902 0.17312 0.86846
 H1252 H 0.02859 0.21778 0.94460
 C1253 C 0.48673 0.70294 0.38786
 C1254 C 0.49953 0.69351 0.43092
 H1255 H 0.47542 0.67453 0.36607
 H1256 H 0.51397 0.72020 0.45289
 C1257 C 0.49816 0.78842 0.40096
 C1258 C 0.52665 0.82449 0.39506
 H1259 H 0.47338 0.78860 0.42940
 H1260 H 0.54970 0.82692 0.36545
 C1261 C 0.00713 0.28965 0.88474
 C1262 C -0.01214 0.30081 0.92533
 H1263 H 0.02661 0.31627 0.86610
 H1264 H -0.03341 0.27593 0.94415
 C1265 C 0.50035 0.29622 0.08473
 C1266 C 0.48591 0.33620 0.10308
 H1267 H 0.51188 0.29524 0.04894
 H1268 H 0.47532 0.33839 0.13902
 C1269 C -0.00549 0.79609 0.58221
 C1270 C -0.00696 0.83808 0.60108
 H1271 H -0.00285 0.79273 0.54493
 H1272 H -0.00957 0.84157 0.63834
 C1273 C 0.24883 0.33539 0.03896
 C1274 C 0.27440 0.29800 0.05177
 H1275 H 0.22521 0.34985 0.06447
 H1276 H 0.29828 0.28171 0.02779
 C1277 C 0.76334 0.82209 0.53285
 C1278 C 0.76138 0.83450 0.57658
 H1279 H 0.76387 0.78537 0.52428
 H1280 H 0.75927 0.87167 0.58338
 C1281 C 0.25379 0.65633 0.54514
 C1282 C 0.22256 0.68678 0.56250
 H1283 H 0.28270 0.64751 0.56755
 H1284 H 0.19361 0.69839 0.54162
 C1285 C 0.75602 0.15882 0.04980
 C1286 C 0.72513 0.19011 0.06616
 H1287 H 0.78432 0.14921 0.07264
 H1288 H 0.69680 0.20223 0.04474
 C1289 C 0.74489 0.16040 0.96170
 C1290 C 0.76715 0.19983 0.94824
 H1291 H 0.72068 0.14562 0.93721
 H1292 H 0.79168 0.21658 0.97101
 C1293 C 0.24349 0.65765 0.45655
 C1294 C 0.27428 0.68755 0.43742
 H1295 H 0.21242 0.65078 0.43655
 H1296 H 0.30488 0.69794 0.45639
 C1297 C 0.76302 0.83764 0.44935
 C1298 C 0.73568 0.80220 0.43578
 H1299 H 0.78758 0.85276 0.42491
 H1300 H 0.71133 0.78580 0.45948
 C1301 C 0.26240 0.33576 0.95146
 C1302 C 0.23951 0.29707 0.93818
 H1303 H 0.28630 0.35136 0.92670
 H1304 H 0.21543 0.27980 0.96152
 C1305 C 0.84522 0.46288 0.75104
 C1306 C 0.83725 0.43472 0.78813
 H1307 H 0.82581 0.45586 0.71980
 H1308 H 0.85398 0.44117 0.82087
 C1309 C 0.34950 0.95189 0.25281
 C1310 C 0.34987 0.91489 0.28185
 H1311 H 0.32451 0.95205 0.22483
 H1312 H 0.37416 0.91330 0.31026
 C1313 C 0.15015 0.95124 0.74994
 C1314 C 0.14710 0.91578 0.71939
 H1315 H 0.17355 0.94702 0.77898
 H1316 H 0.12512 0.91860 0.68926
 C1317 C 0.65139 0.45679 0.24966
 C1318 C 0.65159 0.42086 0.21956
 H1319 H 0.67413 0.45445 0.27941
 H1320 H 0.62999 0.42185 0.18906
 C1321 C 0.65047 0.54232 0.24877
 C1322 C 0.65920 0.57207 0.28370
 H1323 H 0.66753 0.54948 0.21593
 H1324 H 0.64524 0.56558 0.31793
 C1325 C 0.15509 0.03664 0.75118
 C1326 C 0.16298 0.06761 0.78517
 H1327 H 0.17430 0.04163 0.71913
 H1328 H 0.14679 0.06321 0.81875
 C1329 C 0.35707 0.03678 0.24897
 C1330 C 0.34906 0.06495 0.21197
 H1331 H 0.34071 0.04629 0.28143
 H1332 H 0.36279 0.05626 0.17820
 C1333 C 0.84806 0.54832 0.74749
 C1334 C 0.83964 0.57941 0.71257
 H1335 H 0.83186 0.55490 0.78076
 H1336 H 0.85388 0.57388 0.67836
 C1337 C 0.95786 0.74751 0.15149
 C1338 C 0.91744 0.76638 0.13930
 H1339 H 0.96067 0.72958 0.18451
 H1340 H 0.91326 0.78209 0.10539
 C1341 C 0.46083 0.24675 0.64659
 C1342 C 0.41911 0.26184 0.63415
 H1343 H 0.46498 0.23020 0.68016
 H1344 H 0.41385 0.27657 0.59996
 C1345 C 0.45403 0.75469 0.83906
 C1346 C 0.41268 0.74165 0.85503
 H1347 H 0.45754 0.76651 0.80349
 H1348 H 0.40897 0.73066 0.89083
 C1349 C 0.96578 0.25283 0.32642
 C1350 C 0.92480 0.24593 0.34648
 H1351 H 0.96792 0.25812 0.28927
 H1352 H 0.92227 0.24047 0.38342
 C1353 C 0.05057 0.26061 0.32586
 C1354 C 0.09163 0.26767 0.34542
 H1355 H 0.04859 0.25247 0.28932
 H1356 H 0.09446 0.27495 0.38203
 C1357 C 0.53953 0.75822 0.84279
 C1358 C 0.58053 0.76622 0.86250
 H1359 H 0.53805 0.74937 0.80640
 H1360 H 0.58268 0.77493 0.89885
 C1361 C 0.54760 0.24352 0.63621
 C1362 C 0.55507 0.26081 0.67821
 H1363 H 0.57653 0.22931 0.61661
 H1364 H 0.52752 0.27774 0.69741
 C1365 C 0.04362 0.73768 0.14002
 C1366 C 0.05410 0.75598 0.18117
 H1367 H 0.07119 0.72164 0.12004
 H1368 H 0.02833 0.77456 0.20126
   
