data_POSCAR
  _audit_creation_date              2014-09-24
  _audit_creation_method            'ToBaCCo'
  _symmetry_space_group_name_H-M    'P1'
  _symmetry_Int_Tables_number       1
  _symmetry_cell_setting            triclinic
  loop_
  _symmetry_equiv_pos_as_xyz
 x,y,z
_cell_length_a 116.0161
_cell_length_b 115.9564
_cell_length_c 117.2043
_cell_angle_alpha 89.948400
_cell_angle_beta 90.014000
_cell_angle_gamma 89.977400
loop_
  _atom_site_label
  _atom_site_type_symbol
  _atom_site_fract_x
  _atom_site_fract_y
  _atom_site_fract_z
N1 N 0.35376 0.32135 0.32962
 N2 N 0.35336 0.32928 0.32162
 C3 C 0.36216 0.32762 0.31432
 C4 C 0.36844 0.31810 0.31791
 C5 C 0.36281 0.31437 0.32767
 H6 H 0.36380 0.33289 0.30690
 H7 H 0.36509 0.30712 0.33302
 Cu8 Cu 0.34130 0.34095 0.32150
 Cu9 Cu 0.34248 0.32055 0.34189
 Cu10 Cu 0.32117 0.34152 0.34213
 N11 N 0.32942 0.35281 0.32189
 N12 N 0.32160 0.35297 0.32998
 C13 C 0.31443 0.36193 0.32822
 C14 C 0.31792 0.36775 0.31847
 C15 C 0.32750 0.36167 0.31470
 H16 H 0.30718 0.36397 0.33364
 H17 H 0.33269 0.36353 0.30728
 N18 N 0.32219 0.32920 0.35367
 N19 N 0.33029 0.32121 0.35358
 C20 C 0.32859 0.31400 0.36244
 C21 C 0.31894 0.31760 0.36844
 C22 C 0.31514 0.32728 0.36259
 H23 H 0.33396 0.30663 0.36431
 H24 H 0.30775 0.33255 0.36464
 H25 H 0.32916 0.32844 0.33315
 H26 H 0.33864 0.33796 0.34192
 N27 N 0.35420 0.82131 -0.17047
 N28 N 0.35428 0.82964 -0.17806
 C29 C 0.36309 0.82792 -0.18535
 C30 C 0.36891 0.81794 -0.18217
 C31 C 0.36295 0.81402 -0.17263
 H32 H 0.36501 0.83352 -0.19246
 H33 H 0.36474 0.80642 -0.16760
 Cu34 Cu 0.34281 0.84188 -0.17793
 Cu35 Cu 0.34271 0.82051 -0.15840
 Cu36 Cu 0.32151 0.84153 -0.15835
 N37 N 0.33048 0.85325 -0.17801
 N38 N 0.32218 0.85307 -0.17040
 C39 C 0.31482 0.86178 -0.17253
 C40 C 0.31867 0.86781 -0.18206
 C41 C 0.32867 0.86207 -0.18527
 H42 H 0.30722 0.86350 -0.16749
 H43 H 0.33423 0.86406 -0.19239
 N44 N 0.32230 0.82914 -0.14685
 N45 N 0.33037 0.82114 -0.14688
 C46 C 0.32860 0.81395 -0.13802
 C47 C 0.31892 0.81758 -0.13208
 C48 C 0.31518 0.82726 -0.13798
 H49 H 0.33398 0.80661 -0.13607
 H50 H 0.30782 0.83259 -0.13595
 H51 H 0.32997 0.82892 -0.16760
 H52 H 0.33894 0.83793 -0.15782
 N53 N 0.85314 0.32123 -0.17108
 N54 N 0.85243 0.32881 -0.17938
 C55 C 0.86112 0.32700 -0.18678
 C56 C 0.86764 0.31775 -0.18294
 C57 C 0.86227 0.31433 -0.17292
 H58 H 0.86255 0.33202 -0.19442
 H59 H 0.86483 0.30738 -0.16731
 Cu60 Cu 0.84032 0.34043 -0.17978
 Cu61 Cu 0.84216 0.32084 -0.15855
 Cu62 Cu 0.82132 0.34219 -0.15805
 N63 N 0.82881 0.35261 -0.17899
 N64 N 0.82162 0.35342 -0.17039
 C65 C 0.81480 0.36268 -0.17193
 C66 C 0.81780 0.36800 -0.18214
 C67 C 0.82678 0.36130 -0.18635
 H68 H 0.80804 0.36517 -0.16610
 H69 H 0.83159 0.36265 -0.19412
 N70 N 0.82239 0.33001 -0.14636
 N71 N 0.83031 0.32186 -0.14658
 C72 C 0.82862 0.31471 -0.13768
 C73 C 0.81916 0.31851 -0.13152
 C74 C 0.81545 0.32826 -0.13731
 H75 H 0.83383 0.30719 -0.13592
 H76 H 0.80819 0.33367 -0.13517
 H77 H 0.82857 0.32866 -0.16700
 H78 H 0.83870 0.33836 -0.15914
 N79 N 0.85370 0.82210 0.32951
 N80 N 0.85245 0.82894 0.32066
 C81 C 0.86125 0.82721 0.31337
 C82 C 0.86840 0.81876 0.31786
 C83 C 0.86330 0.81575 0.32814
 H84 H 0.86221 0.83162 0.30530
 H85 H 0.86625 0.80931 0.33414
 Cu86 Cu 0.83935 0.83925 0.31930
 Cu87 Cu 0.84238 0.82139 0.34176
 Cu88 Cu 0.81854 0.83929 0.33918
 N89 N 0.82832 0.85179 0.32043
 N90 N 0.82015 0.85177 0.32818
 C91 C 0.81343 0.86110 0.32671
 C92 C 0.81760 0.86742 0.31749
 C93 C 0.82713 0.86118 0.31378
 H94 H 0.80598 0.86297 0.33192
 H95 H 0.83274 0.86314 0.30670
 N96 N 0.82069 0.82851 0.35201
 N97 N 0.82987 0.82189 0.35313
 C98 C 0.82877 0.81556 0.36270
 C99 C 0.81841 0.81832 0.36791
 C100 C 0.81354 0.82661 0.36086
 H101 H 0.83504 0.80932 0.36560
 H102 H 0.80535 0.83089 0.36198
 H103 H 0.82863 0.82623 0.33203
 H104 H 0.83615 0.83810 0.33975
 N105 N 0.64661 0.67917 0.33071
 N106 N 0.64659 0.67097 0.32300
 C107 C 0.63775 0.67274 0.31576
 C108 C 0.63187 0.68260 0.31912
 C109 C 0.63780 0.68642 0.32867
 H110 H 0.63575 0.66726 0.30858
 H111 H 0.63593 0.69396 0.33375
 Cu112 Cu 0.65820 0.65882 0.32310
 Cu113 Cu 0.65808 0.67996 0.34279
 Cu114 Cu 0.67932 0.65898 0.34284
 N115 N 0.67045 0.64733 0.32308
 N116 N 0.67866 0.64746 0.33080
 C117 C 0.68597 0.63869 0.32881
 C118 C 0.68219 0.63267 0.31930
 C119 C 0.67229 0.63845 0.31590
 H120 H 0.69352 0.63690 0.33392
 H121 H 0.66681 0.63637 0.30875
 N122 N 0.67852 0.67135 0.35432
 N123 N 0.67042 0.67933 0.35431
 C124 C 0.67221 0.68653 0.36313
 C125 C 0.68193 0.68294 0.36903
 C126 C 0.68568 0.67327 0.36316
 H127 H 0.66684 0.69388 0.36506
 H128 H 0.69308 0.66799 0.36516
 H129 H 0.67091 0.67170 0.33366
 H130 H 0.66187 0.66254 0.34327
 N131 N 0.64657 0.17897 -0.16947
 N132 N 0.64688 0.17110 -0.17752
 C133 C 0.63800 0.17286 -0.18473
 C134 C 0.63178 0.18237 -0.18102
 C135 C 0.63752 0.18599 -0.17128
 H136 H 0.63624 0.16760 -0.19213
 H137 H 0.63536 0.19324 -0.16590
 Cu138 Cu 0.65893 0.15940 -0.17779
 Cu139 Cu 0.65795 0.17968 -0.15731
 Cu140 Cu 0.67921 0.15869 -0.15727
 N141 N 0.67077 0.14748 -0.17747
 N142 N 0.67864 0.14727 -0.16942
 C143 C 0.68575 0.13828 -0.17118
 C144 C 0.68220 0.13245 -0.18092
 C145 C 0.67261 0.13861 -0.18465
 H146 H 0.69298 0.13624 -0.16574
 H147 H 0.66734 0.13682 -0.19203
 N148 N 0.67832 0.17098 -0.14570
 N149 N 0.67022 0.17896 -0.14572
 C150 C 0.67200 0.18615 -0.13688
 C151 C 0.68171 0.18256 -0.13097
 C152 C 0.68547 0.17289 -0.13685
 H153 H 0.66664 0.19352 -0.13497
 H154 H 0.69288 0.16763 -0.13486
 H155 H 0.67119 0.17180 -0.16617
 H156 H 0.66175 0.16224 -0.15738
 N157 N 0.14642 0.67917 -0.16902
 N158 N 0.14610 0.67068 -0.17643
 C159 C 0.13721 0.67240 -0.18363
 C160 C 0.13163 0.68252 -0.18057
 C161 C 0.13776 0.68655 -0.17124
 H162 H 0.13499 0.66669 -0.19057
 H163 H 0.13614 0.69433 -0.16643
 Cu164 Cu 0.15736 0.65822 -0.17615
 Cu165 Cu 0.15800 0.68004 -0.15709
 Cu166 Cu 0.17912 0.65902 -0.15699
 N167 N 0.16987 0.64703 -0.17634
 N168 N 0.17833 0.64739 -0.16890
 C169 C 0.18575 0.63875 -0.17107
 C170 C 0.18177 0.63260 -0.18041
 C171 C 0.17165 0.63814 -0.18352
 H172 H 0.19353 0.63718 -0.16624
 H173 H 0.16597 0.63589 -0.19047
 N174 N 0.17847 0.67148 -0.14562
 N175 N 0.17042 0.67950 -0.14567
 C176 C 0.17227 0.68675 -0.13690
 C177 C 0.18198 0.68316 -0.13100
 C178 C 0.18566 0.67342 -0.13682
 H179 H 0.16693 0.69412 -0.13498
 H180 H 0.19302 0.66810 -0.13479
 H181 H 0.17046 0.67138 -0.16644
 H182 H 0.16168 0.66260 -0.15623
 N183 N 0.14620 0.17937 0.33048
 N184 N 0.14655 0.17157 0.32237
 C185 C 0.13768 0.17334 0.31516
 C186 C 0.13142 0.18276 0.31896
 C187 C 0.13710 0.18635 0.32873
 H188 H 0.13587 0.16812 0.30774
 H189 H 0.13491 0.19361 0.33408
 Cu190 Cu 0.15859 0.15989 0.32204
 Cu191 Cu 0.15769 0.18008 0.34257
 Cu192 Cu 0.17918 0.15928 0.34222
 N193 N 0.17048 0.14805 0.32214
 N194 N 0.17857 0.14794 0.32999
 C195 C 0.18573 0.13901 0.32802
 C196 C 0.18190 0.13317 0.31844
 C197 C 0.17219 0.13916 0.31495
 H198 H 0.19308 0.13688 0.33327
 H199 H 0.16684 0.13728 0.30763
 N200 N 0.17828 0.17148 0.35390
 N201 N 0.17008 0.17936 0.35405
 C202 C 0.17183 0.18644 0.36298
 C203 C 0.18162 0.18287 0.36878
 C204 C 0.18545 0.17333 0.36274
 H205 H 0.16638 0.19369 0.36505
 H206 H 0.19293 0.16811 0.36461
 H207 H 0.17089 0.17238 0.33351
 H208 H 0.16170 0.16270 0.34241
 N209 N 0.64647 0.32045 0.67001
 N210 N 0.64695 0.32810 0.67824
 C211 C 0.63816 0.32624 0.68552
 C212 C 0.63181 0.31689 0.68165
 C213 C 0.63739 0.31346 0.67176
 H214 H 0.63653 0.33134 0.69305
 H215 H 0.63507 0.30640 0.66621
 Cu216 Cu 0.65898 0.33980 0.67867
 Cu217 Cu 0.65767 0.32001 0.65769
 Cu218 Cu 0.67862 0.34125 0.65750
 N219 N 0.67059 0.35189 0.67815
 N220 N 0.67809 0.35254 0.66977
 C221 C 0.68493 0.36176 0.67142
 C222 C 0.68158 0.36718 0.68141
 C223 C 0.67245 0.36067 0.68545
 H224 H 0.69194 0.36423 0.66586
 H225 H 0.66743 0.36229 0.69305
 N226 N 0.67773 0.32904 0.64585
 N227 N 0.66975 0.32095 0.64593
 C228 C 0.67151 0.31382 0.63704
 C229 C 0.68109 0.31756 0.63103
 C230 C 0.68479 0.32726 0.63690
 H231 H 0.66625 0.30637 0.63518
 H232 H 0.69212 0.33261 0.63486
 H233 H 0.67107 0.32786 0.66639
 H234 H 0.66122 0.33751 0.65812
 N235 N 0.64643 0.82098 1.16967
 N236 N 0.64667 0.82883 1.17774
 C237 C 0.63780 0.82699 1.18493
 C238 C 0.63165 0.81745 1.18118
 C239 C 0.63743 0.81389 1.17145
 H240 H 0.63599 0.83221 1.19234
 H241 H 0.63533 0.80665 1.16604
 Cu242 Cu 0.65861 0.84061 1.17807
 Cu243 Cu 0.65784 0.82042 1.15752
 Cu244 Cu 0.67897 0.84155 1.15763
 N245 N 0.67036 0.85258 1.17787
 N246 N 0.67828 0.85290 1.16987
 C247 C 0.68532 0.86191 1.17178
 C248 C 0.68164 0.86760 1.18153
 C249 C 0.67209 0.86140 1.18514
 H250 H 0.69257 0.86414 1.16643
 H251 H 0.66684 0.86309 1.19256
 N252 N 0.67817 0.82930 1.14599
 N253 N 0.67012 0.82127 1.14596
 C254 C 0.67193 0.81414 1.13709
 C255 C 0.68161 0.81781 1.13119
 C256 C 0.68532 0.82747 1.13712
 H257 H 0.66662 0.80676 1.13513
 H258 H 0.69270 0.83279 1.13516
 H259 H 0.67103 0.82836 1.16645
 H260 H 0.66156 0.83789 1.15765
 N261 N 0.14606 0.32112 1.16931
 N262 N 0.14618 0.32926 1.17710
 C263 C 0.13735 0.32755 1.18436
 C264 C 0.13132 0.31783 1.18092
 C265 C 0.13713 0.31400 1.17132
 H266 H 0.13540 0.33301 1.19157
 H267 H 0.13514 0.30648 1.16623
 Cu268 Cu 0.15791 0.34126 1.17706
 Cu269 Cu 0.15754 0.32023 1.15725
 Cu270 Cu 0.17909 0.34088 1.15743
 N271 N 0.17027 0.35262 1.17713
 N272 N 0.17852 0.35240 1.16946
 C273 C 0.18588 0.36113 1.17145
 C274 C 0.18207 0.36722 1.18090
 C275 C 0.17212 0.36152 1.18428
 H276 H 0.19346 0.36286 1.16639
 H277 H 0.16659 0.36372 1.19136
 N278 N 0.17820 0.32855 1.14591
 N279 N 0.16993 0.32075 1.14577
 C280 C 0.17165 0.31362 1.13687
 C281 C 0.18150 0.31706 1.13114
 C282 C 0.18542 0.32656 1.13714
 H283 H 0.16621 0.30635 1.13480
 H284 H 0.19291 0.33173 1.13518
 H285 H 0.17043 0.32822 1.16648
 H286 H 0.16158 0.33757 1.15689
 N287 N 0.14600 0.82071 0.66937
 N288 N 0.14592 0.82890 0.67711
 C289 C 0.13705 0.82708 0.68431
 C290 C 0.13123 0.81721 0.68090
 C291 C 0.13720 0.81343 0.67136
 H292 H 0.13501 0.83254 0.69149
 H293 H 0.13538 0.80589 0.66626
 Cu294 Cu 0.15747 0.84106 0.67713
 Cu295 Cu 0.15754 0.82002 0.65737
 Cu296 Cu 0.17864 0.84115 0.65747
 N297 N 0.16962 0.85263 0.67725
 N298 N 0.17786 0.85263 0.66956
 C299 C 0.18510 0.86144 0.67168
 C300 C 0.18123 0.86733 0.68124
 C301 C 0.17136 0.86144 0.68453
 H302 H 0.19262 0.86337 0.66660
 H303 H 0.16588 0.86335 0.69173
 N304 N 0.17797 0.82879 0.64594
 N305 N 0.16993 0.82075 0.64592
 C306 C 0.17180 0.81357 0.63709
 C307 C 0.18151 0.81723 0.63123
 C308 C 0.18517 0.82693 0.63712
 H309 H 0.16649 0.80619 0.63513
 H310 H 0.19253 0.83226 0.63515
 H311 H 0.17032 0.82833 0.66654
 H312 H 0.16123 0.83746 0.65696
 N313 N 0.35346 0.67820 0.67013
 N314 N 0.35339 0.66994 0.67780
 C315 C 0.36219 0.67161 0.68512
 C316 C 0.36814 0.68146 0.68186
 C317 C 0.36230 0.68539 0.67228
 H318 H 0.36406 0.66609 0.69231
 H319 H 0.36428 0.69292 0.66722
 Cu320 Cu 0.34175 0.65785 0.67759
 Cu321 Cu 0.34206 0.67911 0.65798
 Cu322 Cu 0.32074 0.65822 0.65774
 N323 N 0.32944 0.64644 0.67750
 N324 N 0.32127 0.64664 0.66975
 C325 C 0.31389 0.63791 0.67171
 C326 C 0.31760 0.63186 0.68124
 C327 C 0.32752 0.63757 0.68468
 H328 H 0.30634 0.63619 0.66659
 H329 H 0.33296 0.63543 0.69185
 N330 N 0.32166 0.67064 0.64630
 N331 N 0.32978 0.67859 0.64638
 C332 C 0.32806 0.68583 0.63756
 C333 C 0.31837 0.68230 0.63159
 C334 C 0.31457 0.67262 0.63742
 H335 H 0.33347 0.69317 0.63567
 H336 H 0.30717 0.66735 0.63537
 H337 H 0.32915 0.67086 0.66701
 H338 H 0.33821 0.66172 0.65742
 N339 N 0.35354 0.17837 1.16996
 N340 N 0.35435 0.16944 1.17680
 C341 C 0.36318 0.17109 1.18407
 C342 C 0.36824 0.18165 1.18166
 C343 C 0.36184 0.18600 1.17262
 H344 H 0.36572 0.16500 1.19058
 H345 H 0.36313 0.19409 1.16822
 Cu346 Cu 0.34386 0.15647 1.17561
 Cu347 Cu 0.34201 0.17926 1.15790
 Cu348 Cu 0.32312 0.15618 1.15563
 N349 N 0.33091 0.14590 1.17651
 N350 N 0.32279 0.14583 1.16871
 C351 C 0.31514 0.13747 1.17118
 C352 C 0.31865 0.13198 1.18111
 C353 C 0.32870 0.13761 1.18425
 H354 H 0.30773 0.13541 1.16598
 H355 H 0.33406 0.13582 1.19159
 N356 N 0.32267 0.16959 1.14533
 N357 N 0.32978 0.17842 1.14624
 C358 C 0.32733 0.18611 1.13796
 C359 C 0.31820 0.18196 1.13155
 C360 C 0.31547 0.17146 1.13651
 H361 H 0.33185 0.19415 1.13672
 H362 H 0.30882 0.16553 1.13383
 H363 H 0.32998 0.16875 1.16593
 H364 H 0.34019 0.16192 1.15567
 N365 N 0.85380 0.67808 1.17004
 N366 N 0.85272 0.67099 1.17872
 C367 C 0.86153 0.67267 1.18600
 C368 C 0.86852 0.68135 1.18170
 C369 C 0.86331 0.68455 1.17153
 H370 H 0.86263 0.66808 1.19396
 H371 H 0.86611 0.69119 1.16568
 Cu372 Cu 0.83978 0.66041 1.17988
 Cu373 Cu 0.84241 0.67900 1.15788
 Cu374 Cu 0.81857 0.66116 1.16037
 N375 N 0.82847 0.64809 1.17868
 N376 N 0.82017 0.64845 1.17107
 C377 C 0.81326 0.63925 1.17248
 C378 C 0.81745 0.63269 1.18148
 C379 C 0.82715 0.63860 1.18518
 H380 H 0.80562 0.63764 1.16745
 H381 H 0.83279 0.63629 1.19215
 N382 N 0.82062 0.67213 1.14772
 N383 N 0.82981 0.67872 1.14660
 C384 C 0.82866 0.68517 1.13711
 C385 C 0.81824 0.68251 1.13195
 C386 C 0.81341 0.67417 1.13895
 H387 H 0.83494 0.69140 1.13423
 H388 H 0.80520 0.66992 1.13782
 H389 H 0.82892 0.67391 1.16777
 H390 H 0.83622 0.66224 1.15953
 N391 N 0.85382 0.17802 0.66962
 N392 N 0.85341 0.17008 0.67761
 C393 C 0.86218 0.17177 0.68496
 C394 C 0.86845 0.18130 0.68140
 C395 C 0.86284 0.18503 0.67161
 H396 H 0.86378 0.16651 0.69240
 H397 H 0.86506 0.19234 0.66632
 Cu398 Cu 0.84147 0.15832 0.67759
 Cu399 Cu 0.84234 0.17904 0.65751
 Cu400 Cu 0.81895 0.16056 0.65973
 N401 N 0.82908 0.14702 0.67765
 N402 N 0.82033 0.14792 0.67059
 C403 C 0.81294 0.13920 0.67249
 C404 C 0.81726 0.13240 0.68124
 C405 C 0.82755 0.13767 0.68429
 H406 H 0.80492 0.13803 0.66794
 H407 H 0.83349 0.13490 0.69085
 N408 N 0.82064 0.17191 0.64731
 N409 N 0.82966 0.17876 0.64633
 C410 C 0.82834 0.18537 0.63697
 C411 C 0.81799 0.18256 0.63176
 C412 C 0.81338 0.17394 0.63858
 H413 H 0.83448 0.19179 0.63420
 H414 H 0.80530 0.16949 0.63734
 H415 H 0.82965 0.17260 0.66772
 H416 H 0.83653 0.16203 0.65779
 N417 N 0.32091 0.35386 0.67024
 N418 N 0.32884 0.35355 0.67823
 C419 C 0.32709 0.36235 0.68551
 C420 C 0.31752 0.36854 0.68192
 C421 C 0.31385 0.36286 0.67217
 H422 H 0.33235 0.36405 0.69293
 H423 H 0.30658 0.36506 0.66683
 Cu424 Cu 0.34059 0.34159 0.67839
 Cu425 Cu 0.32022 0.34250 0.65803
 Cu426 Cu 0.34129 0.32127 0.65797
 N427 N 0.35248 0.32977 0.67816
 N428 N 0.35271 0.32185 0.67016
 C429 C 0.36168 0.31473 0.67204
 C430 C 0.36743 0.31836 0.68178
 C431 C 0.36131 0.32796 0.68541
 H432 H 0.36381 0.30746 0.66669
 H433 H 0.36307 0.33320 0.69281
 N434 N 0.32899 0.32217 0.64639
 N435 N 0.32098 0.33024 0.64641
 C436 C 0.31383 0.32849 0.63753
 C437 C 0.31749 0.31883 0.63158
 C438 C 0.32714 0.31506 0.63749
 H439 H 0.30647 0.33384 0.63560
 H440 H 0.33245 0.30769 0.63549
 H441 H 0.32816 0.32926 0.66688
 H442 H 0.33763 0.33870 0.65802
 N443 N 0.32114 0.85429 0.17040
 N444 N 0.32958 0.85454 0.17786
 C445 C 0.32789 0.86343 0.18505
 C446 C 0.31783 0.86907 0.18194
 C447 C 0.31379 0.86299 0.17259
 H448 H 0.33348 0.86554 0.19212
 H449 H 0.30613 0.86481 0.16765
 Cu450 Cu 0.34191 0.84316 0.17766
 Cu451 Cu 0.32037 0.84279 0.15835
 Cu452 Cu 0.34162 0.82184 0.15810
 N453 N 0.35335 0.83088 0.17770
 N454 N 0.35321 0.82259 0.17008
 C455 C 0.36195 0.81526 0.17219
 C456 C 0.36795 0.81913 0.18168
 C457 C 0.36219 0.82909 0.18493
 H458 H 0.36374 0.80765 0.16718
 H459 H 0.36421 0.83461 0.19208
 N460 N 0.32917 0.82252 0.14668
 N461 N 0.32105 0.83048 0.14681
 C462 C 0.31384 0.82865 0.13799
 C463 C 0.31756 0.81906 0.13198
 C464 C 0.32733 0.81542 0.13778
 H465 H 0.30640 0.83393 0.13613
 H466 H 0.33276 0.80816 0.13567
 H467 H 0.32901 0.83016 0.16747
 H468 H 0.33783 0.83925 0.15760
 N469 N 0.82120 0.35407 0.17013
 N470 N 0.82897 0.35357 0.17828
 C471 C 0.82712 0.36227 0.18567
 C472 C 0.81773 0.36860 0.18190
 C473 C 0.81421 0.36313 0.17200
 H474 H 0.83231 0.36400 0.19313
 H475 H 0.80700 0.36546 0.16663
 Cu476 Cu 0.84086 0.34175 0.17823
 Cu477 Cu 0.82056 0.34283 0.15780
 Cu478 Cu 0.84145 0.32142 0.15782
 N479 N 0.85250 0.32967 0.17820
 N480 N 0.85274 0.32182 0.17012
 C481 C 0.86168 0.31467 0.17196
 C482 C 0.86737 0.31819 0.18175
 C483 C 0.86127 0.32774 0.18548
 H484 H 0.86380 0.30738 0.16661
 H485 H 0.86318 0.33300 0.19285
 N486 N 0.82927 0.32249 0.14613
 N487 N 0.82135 0.33065 0.14611
 C488 C 0.81425 0.32899 0.13717
 C489 C 0.81785 0.31930 0.13123
 C490 C 0.82742 0.31543 0.13720
 H491 H 0.80694 0.33441 0.13520
 H492 H 0.83266 0.30799 0.13524
 H493 H 0.82835 0.32954 0.16670
 H494 H 0.83792 0.33887 0.15782
 N495 N 0.82113 0.85423 0.67038
 N496 N 0.82862 0.85356 0.67877
 C497 C 0.82674 0.86231 0.68609
 C498 C 0.81761 0.86884 0.68205
 C499 C 0.81428 0.86345 0.67205
 H500 H 0.83173 0.86391 0.69372
 H501 H 0.80728 0.86592 0.66648
 Cu502 Cu 0.84023 0.84146 0.67925
 Cu503 Cu 0.82061 0.84297 0.65810
 Cu504 Cu 0.84148 0.82161 0.65830
 N505 N 0.85220 0.82972 0.67887
 N506 N 0.85267 0.82202 0.67067
 C507 C 0.86174 0.81502 0.67248
 C508 C 0.86731 0.81849 0.68237
 C509 C 0.86097 0.82788 0.68617
 H510 H 0.86411 0.80795 0.66695
 H511 H 0.86257 0.83297 0.69372
 N512 N 0.82939 0.82264 0.64651
 N513 N 0.82146 0.83079 0.64644
 C514 C 0.81438 0.82908 0.63750
 C515 C 0.81798 0.81937 0.63162
 C516 C 0.82756 0.81554 0.63761
 H517 H 0.80706 0.83448 0.63552
 H518 H 0.83279 0.80808 0.63570
 H519 H 0.82815 0.82951 0.66698
 H520 H 0.83803 0.83910 0.65869
 N521 N 0.67918 0.64685 0.66930
 N522 N 0.67129 0.64713 0.67733
 C523 C 0.67305 0.63823 0.68453
 C524 C 0.68259 0.63204 0.68082
 C525 C 0.68622 0.63781 0.67110
 H526 H 0.66779 0.63644 0.69192
 H527 H 0.69345 0.63567 0.66572
 Cu528 Cu 0.65956 0.65915 0.67758
 Cu529 Cu 0.67986 0.65825 0.65712
 Cu530 Cu 0.65878 0.67943 0.65703
 N531 N 0.64761 0.67096 0.67725
 N532 N 0.64737 0.67883 0.66920
 C533 C 0.63837 0.68593 0.67099
 C534 C 0.63260 0.68234 0.68073
 C535 C 0.63875 0.67278 0.68445
 H536 H 0.63627 0.69319 0.66560
 H537 H 0.63694 0.66753 0.69185
 N538 N 0.67109 0.67857 0.64546
 N539 N 0.67911 0.67052 0.64551
 C540 C 0.68630 0.67231 0.63667
 C541 C 0.68266 0.68199 0.63073
 C542 C 0.67296 0.68571 0.63658
 H543 H 0.69369 0.66699 0.63478
 H544 H 0.66765 0.69308 0.63457
 H545 H 0.67191 0.67147 0.66596
 H546 H 0.66242 0.66198 0.65717
 N547 N 0.67901 0.14654 0.16918
 N548 N 0.67079 0.14649 0.17687
 C549 C 0.67256 0.13762 0.18410
 C550 C 0.68243 0.13177 0.18075
 C551 C 0.68627 0.13773 0.17122
 H552 H 0.66705 0.13559 0.19125
 H553 H 0.69383 0.13589 0.16616
 Cu554 Cu 0.65862 0.15807 0.17677
 Cu555 Cu 0.67980 0.15803 0.15711
 Cu556 Cu 0.65879 0.17923 0.15704
 N557 N 0.64714 0.17034 0.17680
 N558 N 0.64727 0.17856 0.16909
 C559 C 0.63850 0.18588 0.17109
 C560 C 0.63250 0.18209 0.18061
 C561 C 0.63828 0.17217 0.18399
 H562 H 0.63672 0.19345 0.16601
 H563 H 0.63619 0.16667 0.19114
 N564 N 0.67116 0.17845 0.14556
 N565 N 0.67916 0.17037 0.14559
 C566 C 0.68636 0.17218 0.13676
 C567 C 0.68276 0.18189 0.13085
 C568 C 0.67307 0.18561 0.13671
 H569 H 0.69373 0.16682 0.13484
 H570 H 0.66777 0.19300 0.13470
 H571 H 0.67148 0.17084 0.16624
 H572 H 0.66238 0.16178 0.15661
 N573 N 0.17855 0.64671 0.16935
 N574 N 0.17024 0.64674 0.17696
 C575 C 0.17189 0.63793 0.18427
 C576 C 0.18177 0.63202 0.18108
 C577 C 0.18574 0.63789 0.17154
 H578 H 0.16633 0.63603 0.19141
 H579 H 0.19332 0.63594 0.16654
 Cu580 Cu 0.15813 0.65836 0.17672
 Cu581 Cu 0.17949 0.65816 0.15724
 Cu582 Cu 0.15856 0.67947 0.15695
 N583 N 0.14673 0.67068 0.17662
 N584 N 0.14694 0.67889 0.16890
 C585 C 0.13821 0.68627 0.17087
 C586 C 0.13216 0.68252 0.18036
 C587 C 0.13785 0.67257 0.18377
 H588 H 0.13650 0.69386 0.16579
 H589 H 0.13570 0.66710 0.19092
 N590 N 0.17101 0.67860 0.14557
 N591 N 0.17898 0.67049 0.14567
 C592 C 0.18625 0.67226 0.13688
 C593 C 0.18271 0.68197 0.13093
 C594 C 0.17300 0.68574 0.13672
 H595 H 0.19361 0.66688 0.13501
 H596 H 0.16773 0.69313 0.13466
 H597 H 0.17116 0.67103 0.16627
 H598 H 0.16211 0.66200 0.15658
 N599 N 0.17871 0.14610 0.66935
 N600 N 0.17048 0.14605 0.67705
 C601 C 0.17224 0.13718 0.68427
 C602 C 0.18211 0.13132 0.68092
 C603 C 0.18595 0.13728 0.67139
 H604 H 0.16674 0.13515 0.69143
 H605 H 0.19351 0.13544 0.66633
 Cu606 Cu 0.15836 0.15768 0.67694
 Cu607 Cu 0.17954 0.15763 0.65731
 Cu608 Cu 0.15848 0.17881 0.65719
 N609 N 0.14682 0.16990 0.67693
 N610 N 0.14691 0.17809 0.66919
 C611 C 0.13814 0.18540 0.67118
 C612 C 0.13216 0.18164 0.68073
 C613 C 0.13796 0.17174 0.68414
 H614 H 0.13634 0.19296 0.66609
 H615 H 0.13590 0.16628 0.69132
 N616 N 0.17091 0.17807 0.64576
 N617 N 0.17893 0.17001 0.64582
 C618 C 0.18616 0.17184 0.63701
 C619 C 0.18253 0.18154 0.63108
 C620 C 0.17282 0.18524 0.63691
 H621 H 0.19354 0.16651 0.63511
 H622 H 0.16750 0.19260 0.63488
 H623 H 0.17121 0.17047 0.66640
 H624 H 0.16213 0.16139 0.65678
 N625 N 0.32090 0.64621 0.32983
 N626 N 0.32886 0.64651 0.32187
 C627 C 0.32713 0.63771 0.31458
 C628 C 0.31755 0.63153 0.31814
 C629 C 0.31385 0.63722 0.32789
 H630 H 0.33241 0.63601 0.30719
 H631 H 0.30656 0.63502 0.33320
 Cu632 Cu 0.34061 0.65846 0.32177
 Cu633 Cu 0.32021 0.65755 0.34207
 Cu634 Cu 0.34129 0.67877 0.34217
 N635 N 0.35248 0.67029 0.32197
 N636 N 0.35270 0.67822 0.32997
 C637 C 0.36167 0.68533 0.32809
 C638 C 0.36742 0.68169 0.31836
 C639 C 0.36131 0.67209 0.31474
 H640 H 0.36381 0.69260 0.33345
 H641 H 0.36307 0.66685 0.30734
 N642 N 0.32900 0.67785 0.35376
 N643 N 0.32098 0.66979 0.35372
 C644 C 0.31384 0.67153 0.36260
 C645 C 0.31750 0.68117 0.36857
 C646 C 0.32716 0.68493 0.36268
 H647 H 0.30646 0.66619 0.36452
 H648 H 0.33247 0.69229 0.36470
 H649 H 0.32817 0.67080 0.33325
 H650 H 0.33762 0.66135 0.34213
 N651 N 0.32052 0.14617 0.83047
 N652 N 0.32876 0.14594 0.82279
 C653 C 0.32690 0.13704 0.81565
 C654 C 0.31695 0.13135 0.81903
 C655 C 0.31316 0.13744 0.82849
 H656 H 0.33242 0.13486 0.80854
 H657 H 0.30558 0.13572 0.83356
 Cu658 Cu 0.34108 0.15733 0.82277
 Cu659 Cu 0.31993 0.15777 0.84244
 Cu660 Cu 0.34140 0.17853 0.84241
 N661 N 0.35278 0.16936 0.82264
 N662 N 0.35287 0.17760 0.83032
 C663 C 0.36173 0.18476 0.82820
 C664 C 0.36757 0.18085 0.81863
 C665 C 0.36160 0.17103 0.81535
 H666 H 0.36371 0.19228 0.83327
 H667 H 0.36346 0.16554 0.80814
 N668 N 0.32905 0.17803 0.85392
 N669 N 0.32081 0.17019 0.85387
 C670 C 0.31364 0.17220 0.86269
 C671 C 0.31757 0.18174 0.86862
 C672 C 0.32736 0.18520 0.86280
 H673 H 0.30619 0.16700 0.86473
 H674 H 0.33280 0.19248 0.86481
 H675 H 0.32849 0.17040 0.83327
 H676 H 0.33741 0.16117 0.84292
 N677 N 0.82070 0.64590 0.83029
 N678 N 0.82888 0.64578 0.82255
 C679 C 0.82704 0.63691 0.81538
 C680 C 0.81716 0.63112 0.81880
 C681 C 0.81339 0.63712 0.82832
 H682 H 0.83250 0.63484 0.80820
 H683 H 0.80586 0.63533 0.83344
 Cu684 Cu 0.84109 0.65731 0.82255
 Cu685 Cu 0.82004 0.65743 0.84231
 Cu686 Cu 0.84120 0.67848 0.84223
 N687 N 0.85267 0.66945 0.82243
 N688 N 0.85267 0.67768 0.83012
 C689 C 0.86149 0.68492 0.82803
 C690 C 0.86738 0.68105 0.81846
 C691 C 0.86149 0.67119 0.81516
 H692 H 0.86341 0.69244 0.83311
 H693 H 0.86342 0.66571 0.80797
 N694 N 0.82885 0.67781 0.85377
 N695 N 0.82080 0.66979 0.85378
 C696 C 0.81364 0.67164 0.86263
 C697 C 0.81733 0.68132 0.86852
 C698 C 0.82702 0.68498 0.86262
 H699 H 0.80625 0.66633 0.86459
 H700 H 0.83238 0.69232 0.86461
 H701 H 0.82841 0.67020 0.83313
 H702 H 0.83750 0.66108 0.84272
 N703 N 0.82111 0.14653 0.33009
 N704 N 0.82923 0.14654 0.32229
 C705 C 0.82743 0.13769 0.31508
 C706 C 0.81763 0.13178 0.31854
 C707 C 0.81387 0.13769 0.32812
 H708 H 0.83286 0.13570 0.30786
 H709 H 0.80640 0.13579 0.33329
 Cu710 Cu 0.84135 0.15814 0.32236
 Cu711 Cu 0.82041 0.15796 0.34219
 Cu712 Cu 0.84155 0.17905 0.34229
 N713 N 0.85298 0.17023 0.32236
 N714 N 0.85304 0.17833 0.33020
 C715 C 0.86192 0.18552 0.32825
 C716 C 0.86778 0.18177 0.31864
 C717 C 0.86183 0.17203 0.31513
 H718 H 0.86386 0.19300 0.33339
 H719 H 0.86383 0.16661 0.30791
 N720 N 0.82917 0.17829 0.35379
 N721 N 0.82113 0.17026 0.35374
 C722 C 0.81393 0.17206 0.36256
 C723 C 0.81757 0.18173 0.36850
 C724 C 0.82729 0.18543 0.36265
 H725 H 0.80654 0.16674 0.36446
 H726 H 0.83261 0.19279 0.36468
 H727 H 0.82871 0.17088 0.33317
 H728 H 0.83786 0.16164 0.34259
 N729 N 0.67862 0.35348 0.32993
 N730 N 0.67113 0.35276 0.32155
 C731 C 0.67290 0.36154 0.31423
 C732 C 0.68197 0.36814 0.31825
 C733 C 0.68538 0.36276 0.32825
 H734 H 0.66787 0.36311 0.30662
 H735 H 0.69236 0.36530 0.33381
 Cu736 Cu 0.65962 0.34055 0.32111
 Cu737 Cu 0.67928 0.34223 0.34222
 Cu738 Cu 0.65859 0.32073 0.34213
 N739 N 0.64772 0.32873 0.32159
 N740 N 0.64735 0.32105 0.32982
 C741 C 0.63832 0.31399 0.32810
 C742 C 0.63267 0.31739 0.31822
 C743 C 0.63892 0.32681 0.31435
 H744 H 0.63609 0.30689 0.33365
 H745 H 0.63720 0.33193 0.30683
 N746 N 0.67069 0.32184 0.35387
 N747 N 0.67856 0.33004 0.35391
 C748 C 0.68566 0.32837 0.36285
 C749 C 0.68211 0.31864 0.36876
 C750 C 0.67257 0.31476 0.36278
 H751 H 0.69295 0.33381 0.36483
 H752 H 0.66738 0.30727 0.36471
 H753 H 0.67185 0.32872 0.33338
 H754 H 0.66191 0.33825 0.34166
 N755 N 0.67845 0.85361 0.83030
 N756 N 0.67060 0.85320 0.82222
 C757 C 0.67239 0.86197 0.81488
 C758 C 0.68181 0.86825 0.81861
 C759 C 0.68543 0.86268 0.82843
 H760 H 0.66713 0.86376 0.80747
 H761 H 0.69270 0.86495 0.83375
 Cu762 Cu 0.65873 0.84135 0.82225
 Cu763 Cu 0.67923 0.84224 0.84251
 Cu764 Cu 0.65853 0.82069 0.84240
 N765 N 0.64720 0.82916 0.82224
 N766 N 0.64717 0.82113 0.83016
 C767 C 0.63836 0.81385 0.82823
 C768 C 0.63250 0.81747 0.81856
 C769 C 0.63840 0.82724 0.81500
 H770 H 0.63643 0.80645 0.83350
 H771 H 0.63642 0.83259 0.80771
 N772 N 0.67074 0.82172 0.85406
 N773 N 0.67860 0.82994 0.85411
 C774 C 0.68574 0.82824 0.86301
 C775 C 0.68224 0.81847 0.86889
 C776 C 0.67267 0.81459 0.86293
 H777 H 0.69301 0.83370 0.86500
 H778 H 0.66750 0.80710 0.86486
 H779 H 0.67145 0.82906 0.83349
 H780 H 0.66190 0.83818 0.84259
 N781 N 0.17828 0.35300 0.83038
 N782 N 0.17095 0.35214 0.82188
 C783 C 0.17263 0.36098 0.81462
 C784 C 0.18154 0.36777 0.81875
 C785 C 0.18489 0.36240 0.82880
 H786 H 0.16782 0.36227 0.80683
 H787 H 0.19168 0.36506 0.83453
 Cu788 Cu 0.15994 0.33954 0.82094
 Cu789 Cu 0.17908 0.34160 0.84254
 Cu790 Cu 0.16051 0.31830 0.84052
 N791 N 0.14770 0.32814 0.82203
 N792 N 0.14795 0.31985 0.82967
 C793 C 0.13877 0.31294 0.82816
 C794 C 0.13234 0.31711 0.81907
 C795 C 0.13830 0.32681 0.81542
 H796 H 0.13708 0.30531 0.83319
 H797 H 0.13606 0.33244 0.80842
 N798 N 0.17165 0.32014 0.85304
 N799 N 0.17863 0.32908 0.85391
 C800 C 0.18519 0.32779 0.86331
 C801 C 0.18216 0.31757 0.86866
 C802 C 0.17352 0.31298 0.86189
 H803 H 0.19169 0.33385 0.86605
 H804 H 0.16901 0.30494 0.86322
 H805 H 0.17333 0.32827 0.83276
 H806 H 0.16210 0.33596 0.84128
 N807 N 0.17887 0.85354 0.32994
 N808 N 0.17081 0.85331 0.32206
 C809 C 0.17245 0.86220 0.31483
 C810 C 0.18207 0.86833 0.31834
 C811 C 0.18591 0.86255 0.32798
 H812 H 0.16711 0.86399 0.30748
 H813 H 0.19323 0.86475 0.33325
 Cu814 Cu 0.15909 0.84131 0.32197
 Cu815 Cu 0.17967 0.84217 0.34215
 Cu816 Cu 0.15859 0.82098 0.34243
 N817 N 0.14723 0.82945 0.32230
 N818 N 0.14710 0.82154 0.33032
 C819 C 0.13816 0.81438 0.32853
 C820 C 0.13231 0.81797 0.31883
 C821 C 0.13836 0.82759 0.31512
 H822 H 0.13615 0.80707 0.33388
 H823 H 0.13647 0.83286 0.30775
 N824 N 0.17095 0.82188 0.35392
 N825 N 0.17899 0.82992 0.35380
 C826 C 0.18619 0.82817 0.36264
 C827 C 0.18253 0.81856 0.36868
 C828 C 0.17283 0.81482 0.36286
 H829 H 0.19359 0.83350 0.36450
 H830 H 0.16749 0.80749 0.36495
 H831 H 0.17162 0.82897 0.33339
 H832 H 0.16225 0.83842 0.34233
 C833 C 0.24545 1.00086 0.25443
 C834 C 0.25319 1.00094 0.24576
 C835 C 0.25791 1.01189 0.24127
 C836 C 0.25803 0.99009 0.24118
 C837 C 0.24073 0.98993 0.25900
 C838 C 0.24072 1.01173 0.25905
 C839 C 0.25480 1.01583 0.23039
 C840 C 0.25939 1.02611 0.22613
 C841 C 0.26715 1.03265 0.23269
 C842 C 0.27015 1.02870 0.24365
 C843 C 0.26559 1.01839 0.24788
 C844 C 0.25467 0.98603 0.23043
 C845 C 0.25933 0.97582 0.22610
 C846 C 0.26744 0.96949 0.23247
 C847 C 0.27071 0.97357 0.24330
 C848 C 0.26604 0.98378 0.24761
 C849 C 0.24324 0.98647 0.27018
 C850 C 0.23868 0.97622 0.27452
 C851 C 0.23151 0.96924 0.26775
 C852 C 0.22903 0.97274 0.25652
 C853 C 0.23360 0.98300 0.25219
 C854 C 0.24475 1.01617 0.26942
 C855 C 0.24017 1.02640 0.27379
 C856 C 0.23151 1.03240 0.26782
 C857 C 0.22761 1.02796 0.25734
 C858 C 0.23218 1.01771 0.25300
 H859 H 0.24878 1.01100 0.22521
 H860 H 0.25700 1.02882 0.21761
 H861 H 0.27597 1.03361 0.24899
 H862 H 0.26806 1.01546 0.25631
 H863 H 0.24837 0.99069 0.22542
 H864 H 0.25671 0.97297 0.21770
 H865 H 0.26866 0.98678 0.25597
 H866 H 0.24879 0.99164 0.27555
 H867 H 0.24064 0.97384 0.28325
 H868 H 0.22365 0.96749 0.25105
 H869 H 0.23154 0.98558 0.24354
 H870 H 0.25148 1.01177 0.27411
 H871 H 0.24329 1.02951 0.28193
 H872 H 0.22110 1.03246 0.25244
 H873 H 0.22906 1.01441 0.24492
 H874 H 0.27681 0.96880 0.24847
 C875 C 0.24504 0.50038 0.75480
 C876 C 0.25327 0.50037 0.74651
 C877 C 0.25777 0.51125 0.74150
 C878 C 0.25826 0.48950 0.74197
 C879 C 0.24001 0.48951 0.75932
 C880 C 0.24057 0.51128 0.75979
 C881 C 0.25036 0.51934 0.73642
 C882 C 0.25478 0.52951 0.73173
 C883 C 0.26670 0.53172 0.73195
 C884 C 0.27409 0.52351 0.73690
 C885 C 0.26967 0.51337 0.74159
 C886 C 0.25811 0.48746 0.73018
 C887 C 0.26282 0.47734 0.72572
 C888 C 0.26785 0.46908 0.73297
 C889 C 0.26816 0.47123 0.74477
 C890 C 0.26345 0.48137 0.74923
 C891 C 0.24020 0.48740 0.77110
 C892 C 0.23552 0.47725 0.77553
 C893 C 0.23048 0.46903 0.76827
 C894 C 0.23013 0.47125 0.75647
 C895 C 0.23481 0.48142 0.75204
 C896 C 0.24802 0.51937 0.76480
 C897 C 0.24365 0.52962 0.76936
 C898 C 0.23174 0.53192 0.76909
 C899 C 0.22431 0.52369 0.76424
 C900 C 0.22868 0.51347 0.75968
 H901 H 0.24117 0.51777 0.73609
 H902 H 0.24887 0.53569 0.72803
 H903 H 0.28333 0.52485 0.73702
 H904 H 0.27554 0.50718 0.74538
 H905 H 0.25427 0.49368 0.72443
 H906 H 0.26265 0.47605 0.71657
 H907 H 0.26386 0.48290 0.75834
 H908 H 0.24406 0.49358 0.77687
 H909 H 0.23573 0.47589 0.78467
 H910 H 0.22636 0.46506 0.75065
 H911 H 0.23439 0.48300 0.74294
 H912 H 0.25720 0.51775 0.76515
 H913 H 0.24961 0.53580 0.77299
 H914 H 0.21508 0.52510 0.76410
 H915 H 0.22279 0.50729 0.75596
 H916 H 0.27193 0.46501 0.75057
 C917 C 0.74578 -0.00041 0.24584
 C918 C 0.75403 -0.00034 0.25412
 C919 C 0.75907 -0.01116 0.25873
 C920 C 0.75852 0.01058 0.25903
 C921 C 0.74126 0.01044 0.24077
 C922 C 0.74083 -0.01132 0.24137
 C923 C 0.75893 -0.01314 0.27053
 C924 C 0.76372 -0.02318 0.27507
 C925 C 0.76883 -0.03144 0.26790
 C926 C 0.76912 -0.02936 0.25607
 C927 C 0.76432 -0.01929 0.25153
 C928 C 0.75109 0.01869 0.26403
 C929 C 0.75550 0.02889 0.26865
 C930 C 0.76742 0.03110 0.26845
 C931 C 0.77483 0.02286 0.26359
 C932 C 0.77042 0.01269 0.25896
 C933 C 0.74867 0.01851 0.23567
 C934 C 0.74425 0.02869 0.23098
 C935 C 0.73233 0.03091 0.23121
 C936 C 0.72494 0.02270 0.23615
 C937 C 0.72936 0.01256 0.24085
 C938 C 0.74104 -0.01345 0.22960
 C939 C 0.73639 -0.02362 0.22520
 C940 C 0.73136 -0.03184 0.23248
 C941 C 0.73100 -0.02960 0.24427
 C942 C 0.73566 -0.01941 0.24867
 H943 H 0.75503 -0.00691 0.27623
 H944 H 0.76356 -0.02441 0.28423
 H945 H 0.77294 -0.03559 0.25032
 H946 H 0.76472 -0.01781 0.24241
 H947 H 0.74190 0.01712 0.26435
 H948 H 0.74958 0.03510 0.27228
 H949 H 0.77629 0.00648 0.25524
 H950 H 0.75787 0.01694 0.23535
 H951 H 0.75017 0.03487 0.22729
 H952 H 0.71571 0.02406 0.23627
 H953 H 0.72350 0.00638 0.24464
 H954 H 0.74488 -0.00726 0.22381
 H955 H 0.73660 -0.02498 0.21606
 H956 H 0.72724 -0.03579 0.25010
 H957 H 0.73523 -0.01783 0.25777
 H958 H 0.78406 0.02420 0.26349
 C959 C 0.74541 0.49933 0.74536
 C960 C 0.75322 0.49933 0.75399
 C961 C 0.75781 0.48838 0.75862
 C962 C 0.75767 0.51011 0.75917
 C963 C 0.74097 0.51013 0.74017
 C964 C 0.74088 0.48839 0.74069
 C965 C 0.75437 0.48461 0.76944
 C966 C 0.75881 0.47440 0.77398
 C967 C 0.76697 0.46788 0.76787
 C968 C 0.77035 0.47172 0.75696
 C969 C 0.76576 0.48185 0.75236
 C970 C 0.75017 0.51837 0.76384
 C971 C 0.75455 0.52855 0.76855
 C972 C 0.76649 0.53061 0.76873
 C973 C 0.77396 0.52222 0.76424
 C974 C 0.76959 0.51206 0.75955
 C975 C 0.74848 0.51841 0.73555
 C976 C 0.74412 0.52860 0.73082
 C977 C 0.73217 0.53064 0.73056
 C978 C 0.72469 0.52223 0.73500
 C979 C 0.72905 0.51207 0.73972
 C980 C 0.74391 0.48497 0.72964
 C981 C 0.73951 0.47477 0.72506
 C982 C 0.73181 0.46789 0.73138
 C983 C 0.72884 0.47137 0.74251
 C984 C 0.73337 0.48152 0.74713
 H985 H 0.74817 0.48956 0.77432
 H986 H 0.75579 0.47160 0.78226
 H987 H 0.77674 0.46705 0.75208
 H988 H 0.76854 0.48472 0.74400
 H989 H 0.74095 0.51694 0.76380
 H990 H 0.74858 0.53487 0.77190
 H991 H 0.77553 0.50577 0.75608
 H992 H 0.75771 0.51699 0.73564
 H993 H 0.75010 0.53494 0.72752
 H994 H 0.71544 0.52345 0.73473
 H995 H 0.72311 0.50575 0.74314
 H996 H 0.74975 0.49018 0.72460
 H997 H 0.74218 0.47225 0.71657
 H998 H 0.72281 0.46640 0.74756
 H999 H 0.73087 0.48412 0.75565
 H1000 H 0.78321 0.52346 0.76445
 C1001 C 0.24519 0.49956 0.24550
 C1002 C 0.25348 0.49957 0.25375
 C1003 C 0.25804 0.48869 0.25871
 C1004 C 0.25848 0.51044 0.25826
 C1005 C 0.24014 0.51044 0.24102
 C1006 C 0.24074 0.48868 0.24048
 C1007 C 0.25067 0.48057 0.26379
 C1008 C 0.25515 0.47040 0.26846
 C1009 C 0.26708 0.46823 0.26821
 C1010 C 0.27442 0.47647 0.26325
 C1011 C 0.26994 0.48661 0.25859
 C1012 C 0.25835 0.51250 0.27005
 C1013 C 0.26305 0.52263 0.27448
 C1014 C 0.26804 0.53088 0.26721
 C1015 C 0.26833 0.52872 0.25541
 C1016 C 0.26363 0.51856 0.25097
 C1017 C 0.24029 0.51256 0.22924
 C1018 C 0.23564 0.52274 0.22483
 C1019 C 0.23068 0.53098 0.23212
 C1020 C 0.23034 0.52874 0.24392
 C1021 C 0.23499 0.51854 0.24832
 C1022 C 0.24819 0.48067 0.23535
 C1023 C 0.24383 0.47049 0.23064
 C1024 C 0.23192 0.46819 0.23089
 C1025 C 0.22449 0.47633 0.23589
 C1026 C 0.22886 0.48648 0.24059
 H1027 H 0.24147 0.48211 0.26415
 H1028 H 0.24927 0.46419 0.27216
 H1029 H 0.28366 0.47516 0.26312
 H1030 H 0.27578 0.49282 0.25481
 H1031 H 0.25453 0.50628 0.27582
 H1032 H 0.26289 0.52394 0.28362
 H1033 H 0.26401 0.51703 0.24187
 H1034 H 0.24411 0.50637 0.22345
 H1035 H 0.23583 0.52410 0.21570
 H1036 H 0.22662 0.53495 0.24975
 H1037 H 0.23460 0.51696 0.25742
 H1038 H 0.25737 0.48230 0.23499
 H1039 H 0.24977 0.46436 0.22691
 H1040 H 0.21527 0.47491 0.23604
 H1041 H 0.22297 0.49261 0.24441
 H1042 H 0.27207 0.53493 0.24959
 C1043 C 0.74518 1.00068 0.75457
 C1044 C 0.75296 1.00065 0.74591
 C1045 C 0.75744 1.01144 0.74074
 C1046 C 0.75753 0.98971 0.74127
 C1047 C 0.74057 0.98975 0.75924
 C1048 C 0.74077 1.01149 0.75974
 C1049 C 0.74998 1.01971 0.73603
 C1050 C 0.75439 1.02985 0.73127
 C1051 C 0.76635 1.03186 0.73109
 C1052 C 0.77378 1.02346 0.73565
 C1053 C 0.76937 1.01334 0.74038
 C1054 C 0.75476 0.98640 0.73012
 C1055 C 0.75926 0.97624 0.72554
 C1056 C 0.76681 0.96930 0.73197
 C1057 C 0.76953 0.97266 0.74320
 C1058 C 0.76489 0.98276 0.74781
 C1059 C 0.74344 0.98639 0.77035
 C1060 C 0.73897 0.97621 0.77493
 C1061 C 0.73137 0.96930 0.76854
 C1062 C 0.72855 0.97274 0.75736
 C1063 C 0.73315 0.98285 0.75274
 C1064 C 0.74828 1.01973 0.76438
 C1065 C 0.74393 1.02991 0.76913
 C1066 C 0.73198 1.03196 0.76939
 C1067 C 0.72450 1.02358 0.76492
 C1068 C 0.72884 1.01343 0.76019
 H1069 H 0.74074 1.01831 0.73606
 H1070 H 0.74846 1.03619 0.72787
 H1071 H 0.78303 1.02467 0.73545
 H1072 H 0.77527 1.00702 0.74388
 H1073 H 0.74904 0.99167 0.72499
 H1074 H 0.75678 0.97381 0.71697
 H1075 H 0.76720 0.98528 0.75641
 H1076 H 0.74921 0.99162 0.77545
 H1077 H 0.74154 0.97373 0.78347
 H1078 H 0.72258 0.96776 0.75225
 H1079 H 0.73078 0.98542 0.74416
 H1080 H 0.75751 1.01830 0.76429
 H1081 H 0.74991 1.03623 0.77246
 H1082 H 0.71525 1.02481 0.76519
 H1083 H 0.72290 1.00713 0.75675
 H1084 H 0.77545 0.96765 0.74833
 C1085 C 0.74560 0.50061 0.25442
 C1086 C 0.75341 0.50053 0.24578
 C1087 C 0.75792 0.51127 0.24053
 C1088 C 0.75798 0.48954 0.24121
 C1089 C 0.74094 0.48971 0.25912
 C1090 C 0.74122 0.51146 0.25954
 C1091 C 0.75048 0.51954 0.23579
 C1092 C 0.75492 0.52964 0.23095
 C1093 C 0.76689 0.53160 0.23073
 C1094 C 0.77429 0.52319 0.23530
 C1095 C 0.76985 0.51312 0.24011
 C1096 C 0.75526 0.48621 0.23006
 C1097 C 0.75977 0.47603 0.22554
 C1098 C 0.76728 0.46909 0.23203
 C1099 C 0.76993 0.47249 0.24326
 C1100 C 0.76529 0.48260 0.24782
 C1101 C 0.74359 0.48649 0.27033
 C1102 C 0.73909 0.47633 0.27493
 C1103 C 0.73166 0.46930 0.26846
 C1104 C 0.72904 0.47261 0.25719
 C1105 C 0.73367 0.48270 0.25256
 C1106 C 0.74877 0.51973 0.26410
 C1107 C 0.74445 0.52994 0.26880
 C1108 C 0.73250 0.53201 0.26910
 C1109 C 0.72499 0.52360 0.26472
 C1110 C 0.72930 0.51342 0.26003
 H1111 H 0.74124 0.51819 0.23585
 H1112 H 0.74901 0.53598 0.22753
 H1113 H 0.78355 0.52435 0.23506
 H1114 H 0.77574 0.50679 0.24363
 H1115 H 0.74958 0.49147 0.22489
 H1116 H 0.75733 0.47357 0.21697
 H1117 H 0.76755 0.48515 0.25642
 H1118 H 0.74923 0.49180 0.27548
 H1119 H 0.74149 0.47396 0.28354
 H1120 H 0.72321 0.46753 0.25203
 H1121 H 0.73146 0.48516 0.24391
 H1122 H 0.75799 0.51829 0.26398
 H1123 H 0.75045 0.53627 0.27207
 H1124 H 0.71574 0.52484 0.26503
 H1125 H 0.72333 0.50711 0.25666
 H1126 H 0.77582 0.46748 0.24844
 C1127 C 0.24541 -0.00087 0.74600
 C1128 C 0.25370 -0.00086 0.75425
 C1129 C 0.25877 -0.01174 0.75869
 C1130 C 0.25814 0.01001 0.75930
 C1131 C 0.24092 0.01002 0.74098
 C1132 C 0.24043 -0.01174 0.74147
 C1133 C 0.25862 -0.01391 0.77046
 C1134 C 0.26336 -0.02406 0.77483
 C1135 C 0.26843 -0.03222 0.76752
 C1136 C 0.26874 -0.02994 0.75574
 C1137 C 0.26400 -0.01976 0.75136
 C1138 C 0.25067 0.01805 0.76436
 C1139 C 0.25502 0.02824 0.76906
 C1140 C 0.26692 0.03053 0.76886
 C1141 C 0.27438 0.02237 0.76394
 C1142 C 0.27003 0.01220 0.75925
 C1143 C 0.24837 0.01810 0.73596
 C1144 C 0.24400 0.02830 0.73129
 C1145 C 0.23209 0.03056 0.73147
 C1146 C 0.22465 0.02234 0.73634
 C1147 C 0.22903 0.01216 0.74101
 C1148 C 0.24062 -0.01382 0.72968
 C1149 C 0.23600 -0.02397 0.72524
 C1150 C 0.23101 -0.03225 0.73248
 C1151 C 0.23067 -0.03008 0.74429
 C1152 C 0.23530 -0.01989 0.74873
 H1153 H 0.25474 -0.00777 0.77627
 H1154 H 0.26318 -0.02546 0.78397
 H1155 H 0.27254 -0.03608 0.74988
 H1156 H 0.26439 -0.01814 0.74227
 H1157 H 0.24148 0.01643 0.76466
 H1158 H 0.24905 0.03439 0.77273
 H1159 H 0.27594 0.00605 0.75548
 H1160 H 0.25756 0.01650 0.73566
 H1161 H 0.24995 0.03448 0.72766
 H1162 H 0.21542 0.02372 0.73641
 H1163 H 0.22313 0.00598 0.74474
 H1164 H 0.24444 -0.00758 0.72393
 H1165 H 0.23620 -0.02528 0.71609
 H1166 H 0.22693 -0.03631 0.75009
 H1167 H 0.23488 -0.01836 0.75784
 H1168 H 0.28360 0.02377 0.76385
 C1169 C 0.25397 0.24521 1.00008
 C1170 C 0.24629 0.25402 1.00008
 C1171 C 0.24149 0.25855 1.01087
 C1172 C 0.24154 0.25870 0.98930
 C1173 C 0.25874 0.24064 0.98929
 C1174 C 0.25870 0.24051 1.01086
 C1175 C 0.23319 0.25217 1.01684
 C1176 C 0.22854 0.25642 1.02700
 C1177 C 0.23212 0.26715 1.03135
 C1178 C 0.24055 0.27344 1.02537
 C1179 C 0.24520 0.26916 1.01523
 C1180 C 0.23424 0.25193 0.98253
 C1181 C 0.22964 0.25635 0.97241
 C1182 C 0.23222 0.26767 0.96891
 C1183 C 0.23958 0.27441 0.97573
 C1184 C 0.24420 0.26996 0.98582
 C1185 C 0.26697 0.24701 0.98322
 C1186 C 0.27156 0.24272 0.97305
 C1187 C 0.26798 0.23196 0.96878
 C1188 C 0.25964 0.22566 0.97487
 C1189 C 0.25505 0.22998 0.98502
 C1190 C 0.26603 0.24727 1.01762
 C1191 C 0.27056 0.24287 1.02778
 C1192 C 0.26790 0.23159 1.03133
 C1193 C 0.26052 0.22486 1.02452
 C1194 C 0.25595 0.22930 1.01439
 H1195 H 0.23032 0.24390 1.01361
 H1196 H 0.22222 0.25128 1.03150
 H1197 H 0.24342 0.28176 1.02844
 H1198 H 0.25174 0.27411 1.01083
 H1199 H 0.23208 0.24322 0.98511
 H1200 H 0.22413 0.25089 0.96728
 H1201 H 0.24990 0.27529 0.99087
 H1202 H 0.26983 0.25531 0.98638
 H1203 H 0.27783 0.24785 0.96847
 H1204 H 0.25677 0.21731 0.97187
 H1205 H 0.24855 0.22503 0.98948
 H1206 H 0.26824 0.25596 1.01500
 H1207 H 0.27608 0.24834 1.03290
 H1208 H 0.25839 0.21610 1.02693
 H1209 H 0.25022 0.22398 1.00937
 H1210 H 0.24163 0.28320 0.97335
 C1211 C 0.25456 0.74588 0.49995
 C1212 C 0.24629 0.75423 0.49995
 C1213 C 0.24123 0.75872 0.51071
 C1214 C 0.24177 0.75929 0.48919
 C1215 C 0.25898 0.74077 0.48918
 C1216 C 0.25964 0.74137 0.51071
 C1217 C 0.23614 0.75129 0.51872
 C1218 C 0.23141 0.75568 0.52879
 C1219 C 0.23158 0.76761 0.53098
 C1220 C 0.23650 0.77503 0.52283
 C1221 C 0.24125 0.77063 0.51280
 C1222 C 0.22987 0.75924 0.48711
 C1223 C 0.22544 0.76394 0.47706
 C1224 C 0.23283 0.76886 0.46889
 C1225 C 0.24476 0.76906 0.47107
 C1226 C 0.24918 0.76437 0.48116
 C1227 C 0.27087 0.74078 0.48701
 C1228 C 0.27520 0.73605 0.47694
 C1229 C 0.26773 0.73115 0.46883
 C1230 C 0.25582 0.73098 0.47111
 C1231 C 0.25149 0.73570 0.48121
 C1232 C 0.26476 0.74879 0.51870
 C1233 C 0.26942 0.74439 0.52881
 C1234 C 0.26914 0.73247 0.53106
 C1235 C 0.26420 0.72507 0.52293
 C1236 C 0.25953 0.72947 0.51285
 H1237 H 0.23584 0.74209 0.51717
 H1238 H 0.22774 0.74974 0.53492
 H1239 H 0.23656 0.78427 0.52416
 H1240 H 0.24501 0.77652 0.50666
 H1241 H 0.22400 0.75547 0.49326
 H1242 H 0.21621 0.76384 0.47574
 H1243 H 0.25838 0.76468 0.48270
 H1244 H 0.27680 0.74454 0.49310
 H1245 H 0.28442 0.73612 0.47554
 H1246 H 0.24984 0.72733 0.46501
 H1247 H 0.24231 0.73542 0.48282
 H1248 H 0.26512 0.75799 0.51712
 H1249 H 0.27312 0.75032 0.53493
 H1250 H 0.26405 0.71583 0.52430
 H1251 H 0.25573 0.72359 0.50673
 H1252 H 0.25067 0.77274 0.46492
 C1253 C 0.24688 0.74663 0.00005
 C1254 C 0.25517 0.75497 0.00003
 C1255 C 0.26025 0.75943 -0.01074
 C1256 C 0.25960 0.76009 0.01079
 C1257 C 0.24236 0.74161 0.01083
 C1258 C 0.24183 0.74208 -0.01069
 C1259 C 0.26535 0.75197 -0.01872
 C1260 C 0.27005 0.75634 -0.02882
 C1261 C 0.26982 0.76825 -0.03109
 C1262 C 0.26490 0.77570 -0.02298
 C1263 C 0.26020 0.77133 -0.01290
 C1264 C 0.27148 0.76005 0.01298
 C1265 C 0.27581 0.76474 0.02307
 C1266 C 0.26833 0.76964 0.03117
 C1267 C 0.25643 0.76986 0.02887
 C1268 C 0.25211 0.76518 0.01875
 C1269 C 0.23046 0.74166 0.01289
 C1270 C 0.22602 0.73696 0.02294
 C1271 C 0.23341 0.73204 0.03112
 C1272 C 0.24533 0.73183 0.02896
 C1273 C 0.24977 0.73653 0.01888
 C1274 C 0.23668 0.74948 -0.01871
 C1275 C 0.23188 0.74502 -0.02873
 C1276 C 0.23206 0.73308 -0.03086
 C1277 C 0.23706 0.72571 -0.02271
 C1278 C 0.24186 0.73017 -0.01272
 H1279 H 0.26567 0.74278 -0.01712
 H1280 H 0.27373 0.75038 -0.03493
 H1281 H 0.26480 0.78493 -0.02436
 H1282 H 0.25642 0.77723 -0.00680
 H1283 H 0.27741 0.75628 0.00689
 H1284 H 0.28503 0.76464 0.02448
 H1285 H 0.24293 0.76549 0.01712
 H1286 H 0.22459 0.74544 0.00674
 H1287 H 0.21678 0.73705 0.02425
 H1288 H 0.25124 0.72815 0.03511
 H1289 H 0.25897 0.73622 0.01735
 H1290 H 0.23637 0.75868 -0.01720
 H1291 H 0.22814 0.75092 -0.03486
 H1292 H 0.23714 0.71646 -0.02400
 H1293 H 0.24567 0.72431 -0.00658
 H1294 H 0.25045 0.77352 0.03496
 C1295 C 0.24635 0.24613 0.49998
 C1296 C 0.25467 0.25443 0.50000
 C1297 C 0.25981 0.25888 0.48925
 C1298 C 0.25910 0.25951 0.51078
 C1299 C 0.24179 0.24109 0.51073
 C1300 C 0.24133 0.24163 0.48920
 C1301 C 0.26494 0.25141 0.48130
 C1302 C 0.26966 0.25576 0.47120
 C1303 C 0.26943 0.26767 0.46891
 C1304 C 0.26449 0.27513 0.47701
 C1305 C 0.25977 0.27078 0.48708
 C1306 C 0.27098 0.25944 0.51296
 C1307 C 0.27532 0.26414 0.52304
 C1308 C 0.26787 0.26908 0.53113
 C1309 C 0.25597 0.26931 0.52885
 C1310 C 0.25163 0.26461 0.51874
 C1311 C 0.22989 0.24122 0.51279
 C1312 C 0.22542 0.23652 0.52282
 C1313 C 0.23277 0.23151 0.53098
 C1314 C 0.24470 0.23125 0.52883
 C1315 C 0.24916 0.23595 0.51877
 C1316 C 0.23630 0.24907 0.48115
 C1317 C 0.23162 0.24468 0.47105
 C1318 C 0.23180 0.23275 0.46887
 C1319 C 0.23667 0.22533 0.47705
 C1320 C 0.24135 0.22973 0.48711
 H1321 H 0.26525 0.24222 0.48291
 H1322 H 0.27336 0.24980 0.46511
 H1323 H 0.26439 0.28436 0.47561
 H1324 H 0.25597 0.27669 0.49316
 H1325 H 0.27690 0.25565 0.50687
 H1326 H 0.28455 0.26403 0.52444
 H1327 H 0.24244 0.26494 0.51712
 H1328 H 0.22406 0.24505 0.50664
 H1329 H 0.21618 0.23667 0.52413
 H1330 H 0.25058 0.22752 0.53498
 H1331 H 0.25836 0.23559 0.51725
 H1332 H 0.23600 0.25827 0.48269
 H1333 H 0.22799 0.25062 0.46490
 H1334 H 0.23674 0.21609 0.47572
 H1335 H 0.24508 0.22383 0.49327
 H1336 H 0.24999 0.27298 0.53494
 C1337 C 0.75467 0.74594 1.00008
 C1338 C 0.74637 0.75427 1.00011
 C1339 C 0.74134 0.75877 1.01089
 C1340 C 0.74181 0.75932 0.98936
 C1341 C 0.75911 0.74088 0.98930
 C1342 C 0.75973 0.74139 1.01083
 C1343 C 0.73622 0.75135 1.01889
 C1344 C 0.73150 0.75576 1.02896
 C1345 C 0.73172 0.76768 1.03116
 C1346 C 0.73669 0.77508 1.02303
 C1347 C 0.74141 0.77067 1.01299
 C1348 C 0.72991 0.75919 0.98728
 C1349 C 0.72545 0.76385 0.97722
 C1350 C 0.73280 0.76882 0.96905
 C1351 C 0.74472 0.76911 0.97123
 C1352 C 0.74918 0.76445 0.98132
 C1353 C 0.77099 0.74095 0.98712
 C1354 C 0.77534 0.73624 0.97704
 C1355 C 0.76788 0.73130 0.96895
 C1356 C 0.75598 0.73107 0.97123
 C1357 C 0.75164 0.73577 0.98134
 C1358 C 0.76490 0.74876 1.01883
 C1359 C 0.76959 0.74430 1.02891
 C1360 C 0.76926 0.73237 1.03111
 C1361 C 0.76424 0.72502 1.02298
 C1362 C 0.75956 0.72949 1.01293
 H1363 H 0.73589 0.74215 1.01733
 H1364 H 0.72779 0.74983 1.03508
 H1365 H 0.73679 0.78432 1.02436
 H1366 H 0.74520 0.77655 1.00686
 H1367 H 0.72407 0.75537 0.99342
 H1368 H 0.71621 0.76368 0.97589
 H1369 H 0.75838 0.76482 0.98285
 H1370 H 0.77690 0.74473 0.99321
 H1371 H 0.78456 0.73635 0.97565
 H1372 H 0.75001 0.72739 0.96514
 H1373 H 0.74245 0.73544 0.98296
 H1374 H 0.76529 0.75796 1.01728
 H1375 H 0.77334 0.75019 1.03503
 H1376 H 0.76405 0.71578 1.02432
 H1377 H 0.75572 0.72365 1.00681
 H1378 H 0.75062 0.77282 0.96508
 C1379 C 0.75427 0.24585 0.49994
 C1380 C 0.74596 0.25416 0.49996
 C1381 C 0.74091 0.25863 0.51073
 C1382 C 0.74143 0.25924 0.48921
 C1383 C 0.75874 0.24080 0.48916
 C1384 C 0.75934 0.24131 0.51069
 C1385 C 0.73577 0.25118 0.51870
 C1386 C 0.73103 0.25555 0.52878
 C1387 C 0.73126 0.26747 0.53102
 C1388 C 0.73624 0.27490 0.52292
 C1389 C 0.74098 0.27052 0.51287
 C1390 C 0.72953 0.25914 0.48712
 C1391 C 0.72508 0.26384 0.47707
 C1392 C 0.73246 0.26880 0.46891
 C1393 C 0.74438 0.26906 0.47110
 C1394 C 0.74882 0.26436 0.48118
 C1395 C 0.77063 0.24085 0.48703
 C1396 C 0.77500 0.23616 0.47696
 C1397 C 0.76756 0.23126 0.46882
 C1398 C 0.75565 0.23104 0.47106
 C1399 C 0.75128 0.23572 0.48117
 C1400 C 0.76449 0.24871 0.51869
 C1401 C 0.76918 0.24426 0.52877
 C1402 C 0.76888 0.23234 0.53098
 C1403 C 0.76391 0.22496 0.52284
 C1404 C 0.75922 0.22941 0.51279
 H1405 H 0.73544 0.24198 0.51711
 H1406 H 0.72731 0.24960 0.53487
 H1407 H 0.73636 0.28413 0.52429
 H1408 H 0.74479 0.27642 0.50677
 H1409 H 0.72367 0.25533 0.49326
 H1410 H 0.71585 0.26370 0.47574
 H1411 H 0.75802 0.26471 0.48273
 H1412 H 0.77653 0.24461 0.49315
 H1413 H 0.78423 0.23625 0.47559
 H1414 H 0.74970 0.22739 0.46494
 H1415 H 0.74209 0.23540 0.48276
 H1416 H 0.76485 0.25790 0.51712
 H1417 H 0.77290 0.25017 0.53489
 H1418 H 0.76375 0.21573 0.52419
 H1419 H 0.75540 0.22355 0.50666
 H1420 H 0.75029 0.27277 0.46496
 C1421 C 0.74633 0.24673 -0.00021
 C1422 C 0.75464 0.25505 -0.00021
 C1423 C 0.75974 0.25951 -0.01098
 C1424 C 0.75910 0.26013 0.01055
 C1425 C 0.74183 0.24168 0.01056
 C1426 C 0.74130 0.24220 -0.01096
 C1427 C 0.76488 0.25205 -0.01893
 C1428 C 0.76962 0.25642 -0.02901
 C1429 C 0.76940 0.26833 -0.03128
 C1430 C 0.76442 0.27577 -0.02319
 C1431 C 0.75968 0.27140 -0.01314
 C1432 C 0.77098 0.26001 0.01272
 C1433 C 0.77535 0.26468 0.02281
 C1434 C 0.76791 0.26964 0.03091
 C1435 C 0.75601 0.26992 0.02863
 C1436 C 0.75165 0.26525 0.01851
 C1437 C 0.72993 0.24173 0.01265
 C1438 C 0.72552 0.23701 0.02271
 C1439 C 0.73293 0.23208 0.03086
 C1440 C 0.74485 0.23187 0.02866
 C1441 C 0.74926 0.23658 0.01858
 C1442 C 0.73618 0.24960 -0.01899
 C1443 C 0.73148 0.24516 -0.02905
 C1444 C 0.73173 0.23323 -0.03122
 C1445 C 0.73668 0.22585 -0.02306
 C1446 C 0.74138 0.23029 -0.01302
 H1447 H 0.76520 0.24286 -0.01732
 H1448 H 0.77335 0.25046 -0.03510
 H1449 H 0.76431 0.28500 -0.02459
 H1450 H 0.75586 0.27731 -0.00706
 H1451 H 0.77688 0.25620 0.00663
 H1452 H 0.78457 0.26453 0.02421
 H1453 H 0.74246 0.26561 0.01690
 H1454 H 0.72405 0.24551 0.00652
 H1455 H 0.71629 0.23711 0.02404
 H1456 H 0.75078 0.22819 0.03480
 H1457 H 0.75845 0.23626 0.01702
 H1458 H 0.73584 0.25880 -0.01746
 H1459 H 0.72776 0.25107 -0.03520
 H1460 H 0.73680 0.21661 -0.02438
 H1461 H 0.74518 0.22443 -0.00687
 H1462 H 0.75005 0.27362 0.03472
 C1463 C 0.74657 0.74702 0.49990
 C1464 C 0.75488 0.75533 0.49994
 C1465 C 0.75996 0.75986 0.48919
 C1466 C 0.75935 0.76037 0.51072
 C1467 C 0.74203 0.74195 0.51064
 C1468 C 0.74157 0.74250 0.48912
 C1469 C 0.76512 0.75246 0.48121
 C1470 C 0.76982 0.75689 0.47113
 C1471 C 0.76953 0.76882 0.46891
 C1472 C 0.76452 0.77620 0.47703
 C1473 C 0.75982 0.77176 0.48708
 C1474 C 0.77124 0.76025 0.51288
 C1475 C 0.77562 0.76491 0.52297
 C1476 C 0.76820 0.76985 0.53110
 C1477 C 0.75629 0.77013 0.52883
 C1478 C 0.75192 0.76547 0.51871
 C1479 C 0.73013 0.74204 0.51271
 C1480 C 0.72568 0.73730 0.52274
 C1481 C 0.73305 0.73231 0.53089
 C1482 C 0.74498 0.73208 0.52872
 C1483 C 0.74942 0.73681 0.51866
 C1484 C 0.73645 0.74990 0.48109
 C1485 C 0.73176 0.74546 0.47101
 C1486 C 0.73203 0.73353 0.46883
 C1487 C 0.73701 0.72615 0.47698
 C1488 C 0.74170 0.73059 0.48703
 H1489 H 0.76549 0.74326 0.48278
 H1490 H 0.77356 0.75098 0.46502
 H1491 H 0.76435 0.78543 0.47567
 H1492 H 0.75598 0.77762 0.49319
 H1493 H 0.77713 0.75646 0.50677
 H1494 H 0.78485 0.76476 0.52436
 H1495 H 0.74273 0.76584 0.51711
 H1496 H 0.72427 0.74585 0.50657
 H1497 H 0.71644 0.73742 0.52405
 H1498 H 0.75089 0.72836 0.53486
 H1499 H 0.75862 0.73647 0.51713
 H1500 H 0.73608 0.75910 0.48263
 H1501 H 0.72804 0.75137 0.46487
 H1502 H 0.73716 0.71691 0.47566
 H1503 H 0.74550 0.72473 0.49318
 H1504 H 0.75035 0.77382 0.53494
 C1505 C 0.99946 0.25464 0.24621
 C1506 C 0.99941 0.24582 0.25380
 C1507 C 1.01027 0.24122 0.25859
 C1508 C 0.98850 0.24118 0.25846
 C1509 C 0.98860 0.25926 0.24146
 C1510 C 1.01037 0.25925 0.24153
 C1511 C 1.01462 0.23057 0.25495
 C1512 C 1.02480 0.22620 0.25963
 C1513 C 1.03082 0.23243 0.26803
 C1514 C 1.02648 0.24319 0.27153
 C1515 C 1.01629 0.24754 0.26685
 C1516 C 0.98492 0.22997 0.25575
 C1517 C 0.97470 0.22556 0.26031
 C1518 C 0.96787 0.23230 0.26766
 C1519 C 0.97146 0.24358 0.27026
 C1520 C 0.98170 0.24797 0.26572
 C1521 C 0.98433 0.26996 0.24507
 C1522 C 0.97412 0.27433 0.24047
 C1523 C 0.96798 0.26806 0.23219
 C1524 C 0.97223 0.25726 0.22870
 C1525 C 0.98246 0.25290 0.23331
 C1526 C 1.01403 0.27042 0.24429
 C1527 C 1.02422 0.27483 0.23966
 C1528 C 1.03094 0.26813 0.23220
 C1529 C 1.02728 0.25688 0.22955
 C1530 C 1.01707 0.25250 0.23415
 H1531 H 1.01019 0.22566 0.24844
 H1532 H 1.02785 0.21785 0.25682
 H1533 H 1.03101 0.24829 0.27784
 H1534 H 1.01306 0.25583 0.26967
 H1535 H 0.98997 0.22464 0.25008
 H1536 H 0.97225 0.21680 0.25824
 H1537 H 0.98436 0.25665 0.26789
 H1538 H 0.98884 0.27489 0.25150
 H1539 H 0.97112 0.28271 0.24326
 H1540 H 0.96761 0.25214 0.22248
 H1541 H 0.98562 0.24458 0.23051
 H1542 H 1.00905 0.27573 0.25005
 H1543 H 1.02672 0.28356 0.24178
 H1544 H 1.03234 0.25144 0.22396
 H1545 H 1.01436 0.24385 0.23194
 H1546 H 0.96632 0.24904 0.27575
 C1547 C 0.49932 0.25358 0.74586
 C1548 C 0.49932 0.24525 0.75407
 C1549 C 0.51018 0.24075 0.75910
 C1550 C 0.48844 0.24020 0.75852
 C1551 C 0.48846 0.25862 0.74135
 C1552 C 0.51020 0.25814 0.74093
 C1553 C 0.51233 0.22885 0.75901
 C1554 C 0.52246 0.22443 0.76374
 C1555 C 0.53063 0.23182 0.76872
 C1556 C 0.52838 0.24375 0.76895
 C1557 C 0.51822 0.24816 0.76423
 C1558 C 0.48037 0.23505 0.75119
 C1559 C 0.47017 0.23037 0.75557
 C1560 C 0.46792 0.23067 0.76736
 C1561 C 0.47614 0.23566 0.77467
 C1562 C 0.48630 0.24033 0.77030
 C1563 C 0.48034 0.26375 0.74864
 C1564 C 0.47018 0.26847 0.74422
 C1565 C 0.46801 0.26823 0.73241
 C1566 C 0.47626 0.26326 0.72514
 C1567 C 0.48639 0.25854 0.72956
 C1568 C 0.51230 0.27005 0.74108
 C1569 C 0.52245 0.27452 0.73646
 C1570 C 0.53069 0.26717 0.73152
 C1571 C 0.52850 0.25524 0.73124
 C1572 C 0.51832 0.25077 0.73585
 H1573 H 0.50617 0.22297 0.75520
 H1574 H 0.52382 0.21519 0.76362
 H1575 H 0.53453 0.24967 0.77267
 H1576 H 0.51663 0.25736 0.76457
 H1577 H 0.48196 0.23467 0.74210
 H1578 H 0.46400 0.22663 0.74972
 H1579 H 0.49248 0.24415 0.77610
 H1580 H 0.48188 0.26409 0.75775
 H1581 H 0.46397 0.27219 0.75005
 H1582 H 0.47495 0.26314 0.71599
 H1583 H 0.49261 0.25474 0.72378
 H1584 H 0.50609 0.27589 0.74486
 H1585 H 0.52378 0.28376 0.73663
 H1586 H 0.53470 0.24935 0.72755
 H1587 H 0.51677 0.24157 0.73547
 H1588 H 0.47477 0.23582 0.78381
 C1589 C 0.00036 0.24534 0.74594
 C1590 C 0.00031 0.25373 0.75408
 C1591 C -0.01059 0.25880 0.75845
 C1592 C 0.01115 0.25826 0.75913
 C1593 C 0.01126 0.24085 0.74099
 C1594 C -0.01048 0.24027 0.74145
 C1595 C -0.01863 0.26391 0.75104
 C1596 C -0.02884 0.26864 0.75533
 C1597 C -0.03114 0.26841 0.76712
 C1598 C -0.02296 0.26347 0.77450
 C1599 C -0.01278 0.25875 0.77021
 C1600 C 0.01328 0.27017 0.75897
 C1601 C 0.02338 0.27461 0.76373
 C1602 C 0.03153 0.26723 0.76880
 C1603 C 0.02930 0.25531 0.76909
 C1604 C 0.01917 0.25087 0.76433
 C1605 C 0.01343 0.22895 0.74110
 C1606 C 0.02358 0.22455 0.73641
 C1607 C 0.03175 0.23197 0.73144
 C1608 C 0.02949 0.24388 0.73120
 C1609 C 0.01931 0.24828 0.73589
 C1610 C -0.01860 0.23515 0.74876
 C1611 C -0.02877 0.23045 0.74435
 C1612 C -0.03095 0.23070 0.73255
 C1613 C -0.02269 0.23565 0.72526
 C1614 C -0.01256 0.24035 0.72967
 H1615 H -0.01700 0.26423 0.74195
 H1616 H -0.03499 0.27234 0.74943
 H1617 H -0.02438 0.26336 0.78363
 H1618 H -0.00663 0.25497 0.77607
 H1619 H 0.00714 0.27602 0.75510
 H1620 H 0.02474 0.28384 0.76356
 H1621 H 0.01759 0.24168 0.76472
 H1622 H 0.00727 0.22306 0.74489
 H1623 H 0.02496 0.21531 0.73653
 H1624 H 0.03563 0.24982 0.72749
 H1625 H 0.01770 0.25747 0.73552
 H1626 H -0.01707 0.23483 0.75787
 H1627 H -0.03499 0.22674 0.75019
 H1628 H -0.02401 0.23578 0.71611
 H1629 H -0.00634 0.24415 0.72388
 H1630 H 0.03543 0.24941 0.77288
 C1631 C 0.50043 0.24551 0.24560
 C1632 C 0.50046 0.25391 0.25373
 C1633 C 0.48960 0.25899 0.25820
 C1634 C 0.51134 0.25844 0.25868
 C1635 C 0.51128 0.24101 0.24054
 C1636 C 0.48953 0.24043 0.24125
 C1637 C 0.48149 0.26407 0.25085
 C1638 C 0.47131 0.26878 0.25523
 C1639 C 0.46911 0.26857 0.26703
 C1640 C 0.47737 0.26365 0.27435
 C1641 C 0.48751 0.25894 0.26998
 C1642 C 0.51344 0.27035 0.25856
 C1643 C 0.52358 0.27479 0.26323
 C1644 C 0.53180 0.26741 0.26818
 C1645 C 0.52961 0.25548 0.26843
 C1646 C 0.51944 0.25104 0.26376
 C1647 C 0.51344 0.22911 0.24066
 C1648 C 0.52358 0.22470 0.23596
 C1649 C 0.53175 0.23211 0.23097
 C1650 C 0.52949 0.24402 0.23071
 C1651 C 0.51932 0.24843 0.23541
 C1652 C 0.48150 0.23536 0.24869
 C1653 C 0.47120 0.23078 0.24445
 C1654 C 0.46881 0.23110 0.23269
 C1655 C 0.47700 0.23596 0.22526
 C1656 C 0.48726 0.24054 0.22950
 H1657 H 0.48303 0.26437 0.24175
 H1658 H 0.46509 0.27246 0.24937
 H1659 H 0.47603 0.26355 0.28350
 H1660 H 0.49373 0.25517 0.27579
 H1661 H 0.50724 0.27620 0.25478
 H1662 H 0.52491 0.28403 0.26310
 H1663 H 0.51789 0.24184 0.26412
 H1664 H 0.50729 0.22323 0.24448
 H1665 H 0.52496 0.21547 0.23610
 H1666 H 0.53564 0.24996 0.22699
 H1667 H 0.51772 0.25762 0.23505
 H1668 H 0.48318 0.23501 0.25777
 H1669 H 0.46505 0.22713 0.25039
 H1670 H 0.47551 0.23612 0.21614
 H1671 H 0.49341 0.24429 0.22362
 H1672 H 0.53580 0.24958 0.27212
 C1673 C 0.99938 0.75374 0.74609
 C1674 C 0.99937 0.74543 0.75432
 C1675 C 1.01025 0.74094 0.75935
 C1676 C 0.98849 0.74039 0.75878
 C1677 C 0.98853 0.75882 0.74161
 C1678 C 1.01027 0.75822 0.74110
 C1679 C 1.01243 0.72905 0.75927
 C1680 C 1.02263 0.72468 0.76390
 C1681 C 1.03083 0.73212 0.76877
 C1682 C 1.02854 0.74403 0.76900
 C1683 C 1.01831 0.74840 0.76439
 C1684 C 0.98039 0.73529 0.75144
 C1685 C 0.97018 0.73065 0.75580
 C1686 C 0.96793 0.73094 0.76760
 C1687 C 0.97617 0.73587 0.77492
 C1688 C 0.98635 0.74051 0.77055
 C1689 C 0.98044 0.76397 0.74892
 C1690 C 0.97030 0.76874 0.74452
 C1691 C 0.96811 0.76853 0.73271
 C1692 C 0.97634 0.76354 0.72542
 C1693 C 0.98645 0.75877 0.72982
 C1694 C 1.01243 0.77012 0.74120
 C1695 C 1.02259 0.77451 0.73654
 C1696 C 1.03077 0.76709 0.73161
 C1697 C 1.02851 0.75518 0.73137
 C1698 C 1.01832 0.75079 0.73603
 H1699 H 1.00626 0.72315 0.75553
 H1700 H 1.02403 0.71544 0.76378
 H1701 H 1.03471 0.74999 0.77264
 H1702 H 1.01670 0.75759 0.76472
 H1703 H 0.98198 0.73493 0.74234
 H1704 H 0.96398 0.72696 0.74994
 H1705 H 0.99255 0.74429 0.77636
 H1706 H 0.98199 0.76430 0.75803
 H1707 H 0.96411 0.77247 0.75036
 H1708 H 0.97501 0.76344 0.71627
 H1709 H 0.99264 0.75495 0.72403
 H1710 H 1.00626 0.77601 0.74498
 H1711 H 1.02397 0.78375 0.73666
 H1712 H 1.03468 0.74923 0.72770
 H1713 H 1.01672 0.74159 0.73569
 H1714 H 0.97480 0.73602 0.78405
 C1715 C 0.49954 0.75408 0.24604
 C1716 C 0.49958 0.74580 0.25430
 C1717 C 0.51047 0.74132 0.25927
 C1718 C 0.48873 0.74078 0.25884
 C1719 C 0.48865 0.75911 0.24157
 C1720 C 0.51039 0.75858 0.24099
 C1721 C 0.51261 0.72941 0.25922
 C1722 C 0.52277 0.72501 0.26388
 C1723 C 0.53099 0.73243 0.26876
 C1724 C 0.52876 0.74435 0.26895
 C1725 C 0.51856 0.74875 0.26429
 C1726 C 0.48061 0.73560 0.25158
 C1727 C 0.47046 0.73090 0.25604
 C1728 C 0.46831 0.73121 0.26785
 C1729 C 0.47656 0.73623 0.27509
 C1730 C 0.48667 0.74093 0.27063
 C1731 C 0.48057 0.76426 0.24889
 C1732 C 0.47039 0.76896 0.24450
 C1733 C 0.46816 0.76868 0.23270
 C1734 C 0.47637 0.76368 0.22540
 C1735 C 0.48652 0.75897 0.22979
 C1736 C 0.51251 0.77048 0.24105
 C1737 C 0.52264 0.77490 0.23633
 C1738 C 0.53082 0.76749 0.23137
 C1739 C 0.52859 0.75557 0.23116
 C1740 C 0.51844 0.75116 0.23588
 H1741 H 0.50642 0.72353 0.25549
 H1742 H 0.52414 0.71577 0.26379
 H1743 H 0.53494 0.75029 0.27259
 H1744 H 0.51698 0.75795 0.26460
 H1745 H 0.48213 0.73521 0.24248
 H1746 H 0.46425 0.72715 0.25024
 H1747 H 0.49289 0.74478 0.27638
 H1748 H 0.48215 0.76464 0.25799
 H1749 H 0.46420 0.77270 0.25034
 H1750 H 0.47501 0.76353 0.21626
 H1751 H 0.49270 0.75515 0.22400
 H1752 H 0.50635 0.77636 0.24484
 H1753 H 0.52399 0.78414 0.23643
 H1754 H 0.53475 0.74964 0.22746
 H1755 H 0.51686 0.74196 0.23556
 H1756 H 0.47525 0.73641 0.28424
 C1757 C 0.00039 0.74591 0.24582
 C1758 C 0.00039 0.75418 0.25407
 C1759 C -0.01047 0.75922 0.25856
 C1760 C 0.01127 0.75869 0.25905
 C1761 C 0.01126 0.74147 0.24076
 C1762 C -0.01048 0.74087 0.24135
 C1763 C -0.01854 0.76444 0.25127
 C1764 C -0.02866 0.76923 0.25569
 C1765 C -0.03083 0.76896 0.26749
 C1766 C -0.02263 0.76389 0.27477
 C1767 C -0.01255 0.75910 0.27035
 C1768 C 0.01336 0.77060 0.25900
 C1769 C 0.02350 0.77503 0.26368
 C1770 C 0.03173 0.76763 0.26858
 C1771 C 0.02954 0.75570 0.26878
 C1772 C 0.01937 0.75128 0.26410
 C1773 C 0.01345 0.72958 0.24082
 C1774 C 0.02360 0.72522 0.23608
 C1775 C 0.03173 0.73268 0.23111
 C1776 C 0.02944 0.74459 0.23092
 C1777 C 0.01927 0.74894 0.23566
 C1778 C -0.01856 0.73568 0.24866
 C1779 C -0.02871 0.73094 0.24425
 C1780 C -0.03092 0.73123 0.23245
 C1781 C -0.02272 0.73627 0.22516
 C1782 C -0.01260 0.74100 0.22957
 H1783 H -0.01699 0.76481 0.24216
 H1784 H -0.03483 0.77303 0.24987
 H1785 H -0.02395 0.76374 0.28391
 H1786 H -0.00636 0.75523 0.27613
 H1787 H 0.00716 0.77648 0.25525
 H1788 H 0.02482 0.78427 0.26359
 H1789 H 0.01782 0.74207 0.26441
 H1790 H 0.00733 0.72366 0.24461
 H1791 H 0.02501 0.71599 0.23617
 H1792 H 0.03556 0.75056 0.22721
 H1793 H 0.01764 0.75813 0.23535
 H1794 H -0.01699 0.73531 0.25776
 H1795 H -0.03489 0.72717 0.25008
 H1796 H -0.02406 0.73643 0.21602
 H1797 H -0.00642 0.74485 0.22378
 H1798 H 0.03574 0.74978 0.27244
 C1799 C 0.50040 0.74541 0.74584
 C1800 C 0.50040 0.75374 0.75404
 C1801 C 0.48952 0.75880 0.75849
 C1802 C 0.51126 0.75827 0.75902
 C1803 C 0.51127 0.74092 0.74082
 C1804 C 0.48952 0.74036 0.74139
 C1805 C 0.48146 0.76396 0.75114
 C1806 C 0.47127 0.76867 0.75551
 C1807 C 0.46903 0.76839 0.76730
 C1808 C 0.47724 0.76340 0.77462
 C1809 C 0.48739 0.75869 0.77026
 C1810 C 0.51337 0.77018 0.75890
 C1811 C 0.52350 0.77462 0.76357
 C1812 C 0.53173 0.76724 0.76852
 C1813 C 0.52952 0.75532 0.76877
 C1814 C 0.51936 0.75088 0.76411
 C1815 C 0.51344 0.72903 0.74091
 C1816 C 0.52357 0.72463 0.73619
 C1817 C 0.53174 0.73206 0.73121
 C1818 C 0.52947 0.74398 0.73100
 C1819 C 0.51931 0.74836 0.73571
 C1820 C 0.48143 0.73523 0.74873
 C1821 C 0.47123 0.73057 0.74436
 C1822 C 0.46898 0.73086 0.73257
 C1823 C 0.47719 0.73583 0.72525
 C1824 C 0.48737 0.74050 0.72962
 H1825 H 0.48305 0.76432 0.74205
 H1826 H 0.46509 0.77240 0.74965
 H1827 H 0.47587 0.76326 0.78376
 H1828 H 0.49357 0.75488 0.77607
 H1829 H 0.50717 0.77604 0.75512
 H1830 H 0.52484 0.78386 0.76343
 H1831 H 0.51780 0.74168 0.76447
 H1832 H 0.50729 0.72313 0.74471
 H1833 H 0.52496 0.71540 0.73630
 H1834 H 0.53562 0.74992 0.72729
 H1835 H 0.51770 0.75756 0.73538
 H1836 H 0.48302 0.73486 0.75783
 H1837 H 0.46504 0.72685 0.75022
 H1838 H 0.47581 0.73601 0.71612
 H1839 H 0.49355 0.74431 0.72381
 H1840 H 0.53572 0.74941 0.77247
 C1841 C 0.39844 0.30304 0.30196
 C1842 C 0.39321 0.29769 0.31139
 C1843 C 0.38352 0.30258 0.31656
 C1844 C 0.37880 0.31295 0.31244
 C1845 C 0.38407 0.31831 0.30302
 C1846 C 0.39376 0.31342 0.29785
 C1847 C 0.40873 0.29783 0.29649
 N1848 N 0.41399 0.30306 0.28752
 N1849 N 0.42326 0.29837 0.28266
 C1850 C 0.42766 0.28825 0.28657
 N1851 N 0.42238 0.28302 0.29553
 N1852 N 0.41312 0.28770 0.30038
 C1853 C 0.43808 0.28309 0.28131
 C1854 C 0.44250 0.27258 0.28539
 C1855 C 0.45248 0.26783 0.28067
 C1856 C 0.45830 0.27347 0.27176
 C1857 C 0.45380 0.28390 0.26755
 C1858 C 0.44381 0.28867 0.27228
 H1859 H 0.39658 0.28969 0.31480
 H1860 H 0.37974 0.29813 0.32375
 H1861 H 0.38077 0.32632 0.29960
 H1862 H 0.39758 0.31780 0.29061
 H1863 H 0.43829 0.26801 0.29229
 H1864 H 0.45562 0.25969 0.28397
 H1865 H 0.45815 0.28851 0.26077
 H1866 H 0.44065 0.29678 0.26893
 C1867 C 0.39822 0.80283 0.80199
 C1868 C 0.39317 0.79769 0.81162
 C1869 C 0.38354 0.80265 0.81683
 C1870 C 0.37864 0.81291 0.81255
 C1871 C 0.38374 0.81801 0.80286
 C1872 C 0.39338 0.81304 0.79767
 C1873 C 0.40850 0.79759 0.79654
 N1874 N 0.41373 0.80276 0.78751
 N1875 N 0.42303 0.79808 0.78270
 C1876 C 0.42749 0.78803 0.78671
 N1877 N 0.42224 0.78285 0.79571
 N1878 N 0.41296 0.78753 0.80052
 C1879 C 0.43794 0.78289 0.78149
 C1880 C 0.44234 0.77235 0.78555
 C1881 C 0.45234 0.76762 0.78086
 C1882 C 0.45820 0.77329 0.77200
 C1883 C 0.45375 0.78375 0.76783
 C1884 C 0.44373 0.78850 0.77252
 H1885 H 0.39667 0.78982 0.81519
 H1886 H 0.38002 0.79833 0.82423
 H1887 H 0.38038 0.82587 0.79917
 H1888 H 0.39704 0.81723 0.79025
 H1889 H 0.43808 0.76775 0.79240
 H1890 H 0.45545 0.75945 0.78414
 H1891 H 0.45814 0.78839 0.76109
 H1892 H 0.44060 0.79663 0.76919
 C1893 C -0.10224 0.30275 0.80132
 C1894 C -0.10761 0.29733 0.81063
 C1895 C -0.11734 0.30220 0.81573
 C1896 C -0.12198 0.31262 0.81165
 C1897 C -0.11660 0.31805 0.80233
 C1898 C -0.10685 0.31318 0.79723
 C1899 C -0.09189 0.29756 0.79595
 N1900 N -0.08648 0.30286 0.78710
 N1901 N -0.07713 0.29821 0.78236
 C1902 C -0.07280 0.28806 0.78626
 N1903 N -0.07822 0.28276 0.79510
 N1904 N -0.08756 0.28741 0.79984
 C1905 C -0.06230 0.28293 0.78112
 C1906 C -0.05793 0.27239 0.78522
 C1907 C -0.04791 0.26765 0.78058
 C1908 C -0.04199 0.27332 0.77175
 C1909 C -0.04642 0.28378 0.76755
 C1910 C -0.05646 0.28854 0.77219
 H1911 H -0.10430 0.28929 0.81402
 H1912 H -0.12124 0.29770 0.82283
 H1913 H -0.11983 0.32611 0.79897
 H1914 H -0.10293 0.31761 0.79009
 H1915 H -0.06223 0.26780 0.79204
 H1916 H -0.04481 0.25949 0.78388
 H1917 H -0.04198 0.28841 0.76083
 H1918 H -0.05957 0.29667 0.76884
 C1919 C -0.10132 0.80389 0.30235
 C1920 C -0.10641 0.79874 0.31197
 C1921 C -0.11616 0.80360 0.31703
 C1922 C -0.12110 0.81372 0.31259
 C1923 C -0.11598 0.81891 0.30300
 C1924 C -0.10621 0.81405 0.29794
 C1925 C -0.09100 0.79866 0.29696
 N1926 N -0.08576 0.80381 0.28792
 N1927 N -0.07648 0.79909 0.28311
 C1928 C -0.07205 0.78903 0.28713
 N1929 N -0.07730 0.78388 0.29615
 N1930 N -0.08657 0.78860 0.30096
 C1931 C -0.06166 0.78380 0.28188
 C1932 C -0.05737 0.77321 0.28590
 C1933 C -0.04745 0.76836 0.28115
 C1934 C -0.04157 0.77399 0.27227
 C1935 C -0.04591 0.78452 0.26815
 C1936 C -0.05585 0.78937 0.27290
 H1937 H -0.10288 0.79090 0.31560
 H1938 H -0.11988 0.79929 0.32434
 H1939 H -0.11946 0.82675 0.29938
 H1940 H -0.10250 0.81827 0.29056
 H1941 H -0.06165 0.76864 0.29275
 H1942 H -0.04442 0.76016 0.28438
 H1943 H -0.04149 0.78912 0.26140
 H1944 H -0.05890 0.79755 0.26961
 C1945 C 0.60192 0.69812 0.30348
 C1946 C 0.60737 0.68860 0.29839
 C1947 C 0.61707 0.68357 0.30345
 C1948 C 0.62156 0.68793 0.31372
 C1949 C 0.61610 0.69747 0.31878
 C1950 C 0.60641 0.70250 0.31373
 C1951 C 0.59159 0.70343 0.29817
 N1952 N 0.58619 0.71250 0.30319
 N1953 N 0.57686 0.71721 0.29848
 C1954 C 0.57253 0.71307 0.28853
 N1955 N 0.57794 0.70402 0.28349
 N1956 N 0.58727 0.69930 0.28820
 C1957 C 0.56205 0.71822 0.28335
 C1958 C 0.55767 0.71397 0.27299
 C1959 C 0.54767 0.71865 0.26822
 C1960 C 0.54179 0.72769 0.27370
 C1961 C 0.54622 0.73202 0.28399
 C1962 C 0.55623 0.72734 0.28877
 H1963 H 0.60415 0.68499 0.29049
 H1964 H 0.62101 0.67628 0.29924
 H1965 H 0.61921 0.70110 0.32670
 H1966 H 0.60243 0.70982 0.31790
 H1967 H 0.56194 0.70699 0.26855
 H1968 H 0.54457 0.71524 0.26019
 H1969 H 0.54182 0.73889 0.28849
 H1970 H 0.55934 0.73082 0.29677
 C1971 C 0.60156 0.19764 0.80358
 C1972 C 0.60616 0.20212 0.81374
 C1973 C 0.61592 0.19717 0.81873
 C1974 C 0.62136 0.18760 0.81369
 C1975 C 0.61674 0.18311 0.80352
 C1976 C 0.60697 0.18807 0.79853
 C1977 C 0.59119 0.20290 0.79830
 N1978 N 0.58686 0.19873 0.78835
 N1979 N 0.57751 0.20341 0.78364
 C1980 C 0.57209 0.21247 0.78866
 N1981 N 0.57643 0.21665 0.79860
 N1982 N 0.58578 0.21197 0.80331
 C1983 C 0.56161 0.21759 0.78347
 C1984 C 0.55575 0.22669 0.78888
 C1985 C 0.54576 0.23137 0.78406
 C1986 C 0.54139 0.22706 0.77372
 C1987 C 0.54731 0.21804 0.76826
 C1988 C 0.55729 0.21336 0.77307
 H1989 H 0.60222 0.20948 0.81787
 H1990 H 0.61914 0.20090 0.82655
 H1991 H 0.62063 0.17578 0.79934
 H1992 H 0.60367 0.18438 0.79070
 H1993 H 0.55882 0.23016 0.79690
 H1994 H 0.54133 0.23822 0.78855
 H1995 H 0.54426 0.21465 0.76020
 H1996 H 0.56159 0.20640 0.76864
 C1997 C 1.10188 0.69812 0.80352
 C1998 C 1.10734 0.68857 0.79849
 C1999 C 1.11698 0.68352 0.80364
 C2000 C 1.12140 0.68789 0.81393
 C2001 C 1.11594 0.69746 0.81893
 C2002 C 1.10631 0.70251 0.81379
 C2003 C 1.09159 0.70342 0.79814
 N2004 N 1.08617 0.71251 0.80312
 N2005 N 1.07684 0.71719 0.79838
 C2006 C 1.07252 0.71299 0.78844
 N2007 N 1.07795 0.70392 0.78345
 N2008 N 1.08728 0.69924 0.78819
 C2009 C 1.06200 0.71807 0.78327
 C2010 C 1.05760 0.71376 0.77294
 C2011 C 1.04756 0.71839 0.76820
 C2012 C 1.04167 0.72742 0.77367
 C2013 C 1.04612 0.73180 0.78394
 C2014 C 1.05617 0.72718 0.78868
 H2015 H 1.10418 0.68496 0.79058
 H2016 H 1.12095 0.67621 0.79947
 H2017 H 1.11900 0.70107 0.82687
 H2018 H 1.10233 0.70985 0.81791
 H2019 H 1.06189 0.70678 0.76851
 H2020 H 1.04444 0.71493 0.76019
 H2021 H 1.04171 0.73866 0.78844
 H2022 H 1.05930 0.73070 0.79666
 C2023 C 1.10129 0.19801 0.30354
 C2024 C 1.10421 0.20047 0.31492
 C2025 C 1.11398 0.19553 0.31992
 C2026 C 1.12103 0.18796 0.31367
 C2027 C 1.11808 0.18546 0.30231
 C2028 C 1.10835 0.19044 0.29729
 C2029 C 1.09095 0.20329 0.29822
 N2030 N 1.08857 0.20160 0.28700
 N2031 N 1.07927 0.20632 0.28223
 C2032 C 1.07194 0.21292 0.28848
 N2033 N 1.07433 0.21461 0.29970
 N2034 N 1.08364 0.20990 0.30446
 C2035 C 1.06153 0.21808 0.28320
 C2036 C 1.05348 0.22411 0.28990
 C2037 C 1.04357 0.22882 0.28497
 C2038 C 1.04149 0.22764 0.27321
 C2039 C 1.04957 0.22170 0.26649
 C2040 C 1.05947 0.21697 0.27143
 H2041 H 1.09897 0.20625 0.31999
 H2042 H 1.11591 0.19758 0.32872
 H2043 H 1.12336 0.17975 0.29721
 H2044 H 1.10636 0.18834 0.28851
 H2045 H 1.05476 0.22510 0.29900
 H2046 H 1.03743 0.23320 0.29040
 H2047 H 1.04830 0.22079 0.25739
 H2048 H 1.06551 0.21244 0.26600
 C2049 C 0.60161 0.30160 0.69703
 C2050 C 0.60627 0.29707 0.68691
 C2051 C 0.61603 0.30202 0.68194
 C2052 C 0.62140 0.31165 0.68694
 C2053 C 0.61671 0.31618 0.69706
 C2054 C 0.60695 0.31122 0.70204
 C2055 C 0.59124 0.29633 0.70228
 N2056 N 0.58685 0.30050 0.71220
 N2057 N 0.57751 0.29579 0.71688
 C2058 C 0.57215 0.28670 0.71184
 N2059 N 0.57655 0.28253 0.70193
 N2060 N 0.58589 0.28723 0.69726
 C2061 C 0.56167 0.28154 0.71699
 C2062 C 0.55587 0.27244 0.71152
 C2063 C 0.54588 0.26772 0.71627
 C2064 C 0.54146 0.27198 0.72660
 C2065 C 0.54731 0.28100 0.73213
 C2066 C 0.55730 0.28572 0.72738
 H2067 H 0.60239 0.28966 0.68281
 H2068 H 0.61932 0.29824 0.67417
 H2069 H 0.62054 0.32358 0.70120
 H2070 H 0.60359 0.31495 0.70982
 H2071 H 0.55898 0.26902 0.70350
 H2072 H 0.54149 0.26088 0.71174
 H2073 H 0.54422 0.28435 0.74018
 H2074 H 0.56157 0.29268 0.73186
 C2075 C 0.60156 0.80197 0.19656
 C2076 C 0.60616 0.79755 0.18637
 C2077 C 0.61589 0.80257 0.18140
 C2078 C 0.62127 0.81215 0.18646
 C2079 C 0.61664 0.81657 0.19665
 C2080 C 0.60692 0.81155 0.20163
 C2081 C 0.59123 0.79665 0.20183
 N2082 N 0.58690 0.80076 0.21180
 N2083 N 0.57759 0.79602 0.21651
 C2084 C 0.57221 0.78696 0.21147
 N2085 N 0.57654 0.78283 0.20151
 N2086 N 0.58585 0.78757 0.19680
 C2087 C 0.56176 0.78178 0.21667
 C2088 C 0.55593 0.77268 0.21123
 C2089 C 0.54595 0.76797 0.21604
 C2090 C 0.54159 0.77225 0.22639
 C2091 C 0.54749 0.78125 0.23188
 C2092 C 0.55745 0.78597 0.22708
 H2093 H 0.60226 0.79018 0.18222
 H2094 H 0.61913 0.79888 0.17356
 H2095 H 0.62049 0.82392 0.20085
 H2096 H 0.60360 0.81520 0.20947
 H2097 H 0.55899 0.76925 0.20320
 H2098 H 0.54152 0.76113 0.21154
 H2099 H 0.54445 0.78462 0.23995
 H2100 H 0.56175 0.79292 0.23154
 C2101 C 1.10134 0.30259 0.19663
 C2102 C 1.10468 0.29943 0.18554
 C2103 C 1.11439 0.30437 0.18046
 C2104 C 1.12099 0.31262 0.18633
 C2105 C 1.11763 0.31581 0.19741
 C2106 C 1.10793 0.31084 0.20250
 C2107 C 1.09103 0.29731 0.20201
 N2108 N 1.08808 0.29987 0.21293
 N2109 N 1.07881 0.29515 0.21773
 C2110 C 1.07208 0.28766 0.21182
 N2111 N 1.07504 0.28509 0.20090
 N2112 N 1.08432 0.28980 0.19610
 C2113 C 1.06168 0.28249 0.21711
 C2114 C 1.05429 0.27541 0.21068
 C2115 C 1.04438 0.27070 0.21560
 C2116 C 1.04162 0.27293 0.22706
 C2117 C 1.04906 0.27993 0.23352
 C2118 C 1.05896 0.28466 0.22860
 H2119 H 1.09980 0.29311 0.18074
 H2120 H 1.11663 0.30176 0.17188
 H2121 H 1.12253 0.32207 0.20223
 H2122 H 1.10560 0.31349 0.21106
 H2123 H 1.05609 0.27358 0.20180
 H2124 H 1.03875 0.26549 0.21034
 H2125 H 1.04727 0.28167 0.24242
 H2126 H 1.06449 0.29002 0.23382
 C2127 C 1.10139 0.80157 0.69657
 C2128 C 1.10578 0.79730 0.68623
 C2129 C 1.11543 0.80237 0.68116
 C2130 C 1.12095 0.81184 0.68630
 C2131 C 1.11654 0.81609 0.69665
 C2132 C 1.10689 0.81102 0.70172
 C2133 C 1.09111 0.79621 0.70193
 N2134 N 1.08688 0.80027 0.71196
 N2135 N 1.07761 0.79551 0.71672
 C2136 C 1.07216 0.78649 0.71167
 N2137 N 1.07640 0.78242 0.70165
 N2138 N 1.08568 0.78718 0.69688
 C2139 C 1.06174 0.78132 0.71690
 C2140 C 1.05590 0.77221 0.71149
 C2141 C 1.04592 0.76752 0.71631
 C2142 C 1.04155 0.77182 0.72664
 C2143 C 1.04746 0.78084 0.73212
 C2144 C 1.05743 0.78553 0.72731
 H2145 H 1.10176 0.79004 0.68201
 H2146 H 1.11849 0.79885 0.67318
 H2147 H 1.12053 0.82332 0.70092
 H2148 H 1.10374 0.81454 0.70968
 H2149 H 1.05896 0.76875 0.70346
 H2150 H 1.04149 0.76067 0.71182
 H2151 H 1.04441 0.78422 0.74018
 H2152 H 1.06172 0.79250 0.73174
 C2153 C 0.39803 0.69663 0.69792
 C2154 C 0.39329 0.68632 0.70211
 C2155 C 0.38361 0.68140 0.69693
 C2156 C 0.37842 0.68668 0.68740
 C2157 C 0.38319 0.69700 0.68323
 C2158 C 0.39285 0.70191 0.68842
 C2159 C 0.40834 0.70183 0.70336
 N2160 N 0.41277 0.71193 0.69943
 N2161 N 0.42207 0.71657 0.70422
 C2162 C 0.42738 0.71133 0.71317
 N2163 N 0.42295 0.70124 0.71712
 N2164 N 0.41363 0.69660 0.71232
 C2165 C 0.43785 0.71644 0.71837
 C2166 C 0.44364 0.71081 0.72734
 C2167 C 0.45367 0.71554 0.73203
 C2168 C 0.45814 0.72599 0.72786
 C2169 C 0.45228 0.73168 0.71900
 C2170 C 0.44226 0.72696 0.71431
 H2171 H 0.39705 0.68200 0.70942
 H2172 H 0.38026 0.67345 0.70042
 H2173 H 0.37949 0.70137 0.67594
 H2174 H 0.39627 0.70986 0.68494
 H2175 H 0.44050 0.70269 0.73067
 H2176 H 0.45806 0.71089 0.73877
 H2177 H 0.45540 0.73983 0.71572
 H2178 H 0.43801 0.73157 0.70746
 C2179 C 0.39775 0.19715 0.19809
 C2180 C 0.39313 0.18673 0.20216
 C2181 C 0.38356 0.18173 0.19686
 C2182 C 0.37836 0.18702 0.18736
 C2183 C 0.38297 0.19747 0.18333
 C2184 C 0.39253 0.20247 0.18862
 C2185 C 0.40799 0.20241 0.20361
 N2186 N 0.41233 0.21257 0.19978
 N2187 N 0.42161 0.21723 0.20463
 C2188 C 0.42695 0.21193 0.21352
 N2189 N 0.42258 0.20178 0.21737
 N2190 N 0.41330 0.19712 0.21253
 C2191 C 0.43743 0.21701 0.21874
 C2192 C 0.44323 0.21132 0.22766
 C2193 C 0.45332 0.21596 0.23230
 C2194 C 0.45785 0.22637 0.22811
 C2195 C 0.45195 0.23215 0.21933
 C2196 C 0.44187 0.22753 0.21470
 H2197 H 0.39692 0.18239 0.20944
 H2198 H 0.38029 0.17371 0.20028
 H2199 H 0.37928 0.20182 0.17603
 H2200 H 0.39586 0.21050 0.18524
 H2201 H 0.44005 0.20321 0.23099
 H2202 H 0.45773 0.21125 0.23899
 H2203 H 0.45512 0.24029 0.21606
 H2204 H 0.43760 0.23220 0.20790
 C2205 C -0.10134 0.69634 0.19738
 C2206 C -0.10595 0.68593 0.20150
 C2207 C -0.11569 0.68104 0.19639
 C2208 C -0.12103 0.68643 0.18703
 C2209 C -0.11637 0.69681 0.18288
 C2210 C -0.10665 0.70170 0.18799
 C2211 C -0.09106 0.70160 0.20283
 N2212 N -0.08677 0.71179 0.19899
 N2213 N -0.07753 0.71651 0.20385
 C2214 C -0.07217 0.71127 0.21275
 N2215 N -0.07646 0.70108 0.21660
 N2216 N -0.08571 0.69635 0.21175
 C2217 C -0.06179 0.71649 0.21804
 C2218 C -0.05599 0.71090 0.22702
 C2219 C -0.04606 0.71574 0.23180
 C2220 C -0.04169 0.72625 0.22769
 C2221 C -0.04757 0.73191 0.21882
 C2222 C -0.05750 0.72709 0.21405
 H2223 H -0.10207 0.68155 0.20869
 H2224 H -0.11895 0.67300 0.19977
 H2225 H -0.12026 0.70128 0.17575
 H2226 H -0.10334 0.70973 0.18459
 H2227 H -0.05905 0.70273 0.23030
 H2228 H -0.04165 0.71111 0.23854
 H2229 H -0.04453 0.74011 0.21559
 H2230 H -0.06177 0.73168 0.20720
 C2231 C -0.10161 0.19637 0.69745
 C2232 C -0.10633 0.18603 0.70159
 C2233 C -0.11602 0.18114 0.69640
 C2234 C -0.12123 0.18647 0.68692
 C2235 C -0.11647 0.19682 0.68278
 C2236 C -0.10679 0.20170 0.68798
 C2237 C -0.09133 0.20157 0.70295
 N2238 N -0.08692 0.21169 0.69907
 N2239 N -0.07766 0.21635 0.70394
 C2240 C -0.07239 0.21110 0.71290
 N2241 N -0.07680 0.20098 0.71679
 N2242 N -0.08607 0.19632 0.71192
 C2243 C -0.06196 0.21623 0.71818
 C2244 C -0.05621 0.21061 0.72717
 C2245 C -0.04622 0.21535 0.73193
 C2246 C -0.04175 0.22581 0.72779
 C2247 C -0.04758 0.23150 0.71890
 C2248 C -0.05755 0.22677 0.71415
 H2249 H -0.10256 0.18167 0.70887
 H2250 H -0.11935 0.17316 0.69983
 H2251 H -0.12020 0.20124 0.67554
 H2252 H -0.10338 0.20967 0.68454
 H2253 H -0.05936 0.20248 0.73048
 H2254 H -0.04186 0.21070 0.73868
 H2255 H -0.04445 0.23966 0.71565
 H2256 H -0.06178 0.23138 0.70729
 C2257 C 0.30217 0.39773 0.30307
 C2258 C 0.29785 0.39314 0.31331
 C2259 C 0.30296 0.38345 0.31830
 C2260 C 0.31253 0.37809 0.31318
 C2261 C 0.31686 0.38272 0.30295
 C2262 C 0.31175 0.39240 0.29795
 C2263 C 0.29675 0.40801 0.29777
 N2264 N 0.30078 0.41234 0.28777
 N2265 N 0.29595 0.42161 0.28304
 C2266 C 0.28688 0.42695 0.28810
 N2267 N 0.28283 0.42261 0.29810
 N2268 N 0.28766 0.41334 0.30283
 C2269 C 0.28160 0.43735 0.28290
 C2270 C 0.27248 0.44313 0.28835
 C2271 C 0.26768 0.45308 0.28354
 C2272 C 0.27191 0.45748 0.27317
 C2273 C 0.28094 0.45163 0.26766
 C2274 C 0.28573 0.44169 0.27246
 H2275 H 0.29049 0.39702 0.31749
 H2276 H 0.29935 0.38023 0.32618
 H2277 H 0.32419 0.37889 0.29871
 H2278 H 0.31532 0.39571 0.29007
 H2279 H 0.26909 0.44005 0.29640
 H2280 H 0.26083 0.45747 0.28805
 H2281 H 0.28426 0.45470 0.25958
 H2282 H 0.29270 0.43744 0.26799
 C2283 C 0.30334 -0.10291 0.80217
 C2284 C 0.29826 -0.10802 0.81180
 C2285 C 0.30329 -0.11764 0.81699
 C2286 C 0.31357 -0.12247 0.81269
 C2287 C 0.31861 -0.11729 0.80300
 C2288 C 0.31357 -0.10766 0.79784
 C2289 C 0.29802 -0.09265 0.79673
 N2290 N 0.30314 -0.08736 0.78771
 N2291 N 0.29841 -0.07807 0.78292
 C2292 C 0.28834 -0.07368 0.78693
 N2293 N 0.28321 -0.07899 0.79593
 N2294 N 0.28794 -0.08826 0.80073
 C2295 C 0.28313 -0.06324 0.78174
 C2296 C 0.27257 -0.05893 0.78578
 C2297 C 0.26776 -0.04895 0.78108
 C2298 C 0.27341 -0.04302 0.77224
 C2299 C 0.28390 -0.04738 0.76810
 C2300 C 0.28872 -0.05738 0.77279
 H2301 H 0.29038 -0.10458 0.81539
 H2302 H 0.29902 -0.12121 0.82439
 H2303 H 0.32649 -0.12058 0.79931
 H2304 H 0.31773 -0.10395 0.79042
 H2305 H 0.26799 -0.06324 0.79261
 H2306 H 0.25958 -0.04590 0.78434
 H2307 H 0.28852 -0.04293 0.76139
 H2308 H 0.29688 -0.06043 0.76949
 C2309 C 0.80259 0.39765 0.80273
 C2310 C 0.79931 0.39404 0.81369
 C2311 C 0.80427 0.38427 0.81866
 C2312 C 0.81280 0.37789 0.81285
 C2313 C 0.81614 0.38164 0.80188
 C2314 C 0.81104 0.39133 0.79687
 C2315 C 0.79724 0.40796 0.79747
 N2316 N 0.79800 0.40987 0.78606
 N2317 N 0.79315 0.41915 0.78136
 C2318 C 0.78740 0.42693 0.78789
 N2319 N 0.78667 0.42503 0.79930
 N2320 N 0.79145 0.41572 0.80398
 C2321 C 0.78212 0.43733 0.78272
 C2322 C 0.77915 0.44680 0.78958
 C2323 C 0.77429 0.45668 0.78475
 C2324 C 0.77211 0.45729 0.77296
 C2325 C 0.77501 0.44775 0.76612
 C2326 C 0.78003 0.43792 0.77093
 H2327 H 0.79279 0.39871 0.81842
 H2328 H 0.80142 0.38188 0.82711
 H2329 H 0.82260 0.37709 0.79700
 H2330 H 0.81381 0.39393 0.78843
 H2331 H 0.78076 0.44666 0.79868
 H2332 H 0.77243 0.46392 0.79027
 H2333 H 0.77328 0.44782 0.75704
 H2334 H 0.78214 0.43072 0.76543
 C2335 C 0.80342 -0.10216 0.30284
 C2336 C 0.79841 -0.10717 0.31255
 C2337 C 0.80311 -0.11712 0.31743
 C2338 C 0.81299 -0.12237 0.31273
 C2339 C 0.81805 -0.11722 0.30304
 C2340 C 0.81333 -0.10727 0.29818
 C2341 C 0.79831 -0.09171 0.29757
 N2342 N 0.80334 -0.08660 0.28840
 N2343 N 0.79871 -0.07724 0.28364
 C2344 C 0.78882 -0.07261 0.28783
 N2345 N 0.78379 -0.07772 0.29700
 N2346 N 0.78843 -0.08706 0.30176
 C2347 C 0.78365 -0.06218 0.28257
 C2348 C 0.77311 -0.05781 0.28660
 C2349 C 0.76827 -0.04791 0.28176
 C2350 C 0.77387 -0.04213 0.27280
 C2351 C 0.78436 -0.04654 0.26869
 C2352 C 0.78920 -0.05646 0.27352
 H2353 H 0.79079 -0.10344 0.31641
 H2354 H 0.79889 -0.12062 0.32489
 H2355 H 0.82563 -0.12082 0.29905
 H2356 H 0.81743 -0.10364 0.29070
 H2357 H 0.76855 -0.06203 0.29350
 H2358 H 0.76009 -0.04484 0.28499
 H2359 H 0.78895 -0.04220 0.26189
 H2360 H 0.79734 -0.05957 0.27022
 C2361 C 0.30167 0.60211 0.69684
 C2362 C 0.31112 0.60756 0.70204
 C2363 C 0.31628 0.61718 0.69699
 C2364 C 0.31213 0.62161 0.68660
 C2365 C 0.30267 0.61614 0.68139
 C2366 C 0.29751 0.60651 0.68645
 C2367 C 0.29622 0.59188 0.70219
 N2368 N 0.28718 0.58648 0.69711
 N2369 N 0.28234 0.57724 0.70189
 C2370 C 0.28633 0.57301 0.71195
 N2371 N 0.29535 0.57842 0.71704
 N2372 N 0.30019 0.58766 0.71227
 C2373 C 0.28108 0.56262 0.71720
 C2374 C 0.28525 0.55830 0.72763
 C2375 C 0.28051 0.54836 0.73245
 C2376 C 0.27148 0.54249 0.72697
 C2377 C 0.26720 0.54686 0.71662
 C2378 C 0.27195 0.55682 0.71178
 H2379 H 0.31456 0.60441 0.71005
 H2380 H 0.32349 0.62114 0.70132
 H2381 H 0.29924 0.61920 0.67337
 H2382 H 0.29026 0.60252 0.68218
 H2383 H 0.29223 0.56257 0.73207
 H2384 H 0.28387 0.54530 0.74053
 H2385 H 0.26034 0.54246 0.71212
 H2386 H 0.26853 0.55988 0.70374
 C2387 C 0.30268 1.10282 0.19764
 C2388 C 0.31402 1.10606 0.20037
 C2389 C 0.31917 1.11555 0.19507
 C2390 C 0.31311 1.12201 0.18687
 C2391 C 0.30176 1.11879 0.18415
 C2392 C 0.29660 1.10932 0.18948
 C2393 C 0.29726 1.09267 0.20320
 N2394 N 0.28612 1.08983 0.20100
 N2395 N 0.28130 1.08066 0.20591
 C2396 C 0.28741 1.07393 0.21322
 N2397 N 0.29855 1.07678 0.21543
 N2398 N 0.30337 1.08595 0.21054
 C2399 C 0.28212 1.06357 0.21851
 C2400 C 0.28875 1.05610 0.22532
 C2401 C 0.28387 1.04615 0.23001
 C2402 C 0.27223 1.04345 0.22803
 C2403 C 0.26555 1.05102 0.22138
 C2404 C 0.27044 1.06095 0.21666
 H2405 H 0.31897 1.10124 0.20659
 H2406 H 0.32795 1.11769 0.19731
 H2407 H 0.29680 1.12361 0.17796
 H2408 H 0.28785 1.10708 0.18717
 H2409 H 0.29778 1.05784 0.22692
 H2410 H 0.28929 1.04044 0.23497
 H2411 H 0.25651 1.04929 0.21986
 H2412 H 0.26505 1.06655 0.21154
 C2413 C 0.80220 0.60207 0.19607
 C2414 C 0.81154 0.60755 0.20145
 C2415 C 0.81654 0.61740 0.19668
 C2416 C 0.81234 0.62203 0.18640
 C2417 C 0.80307 0.61647 0.18096
 C2418 C 0.79806 0.60662 0.18573
 C2419 C 0.79678 0.59172 0.20125
 N2420 N 0.78774 0.58640 0.19610
 N2421 N 0.78286 0.57713 0.20078
 C2422 C 0.78680 0.57280 0.21083
 N2423 N 0.79583 0.57814 0.21597
 N2424 N 0.80071 0.58739 0.21129
 C2425 C 0.78146 0.56243 0.21603
 C2426 C 0.78571 0.55795 0.22636
 C2427 C 0.78090 0.54804 0.23116
 C2428 C 0.77170 0.54235 0.22576
 C2429 C 0.76732 0.54690 0.21553
 C2430 C 0.77215 0.55682 0.21070
 H2431 H 0.81497 0.60428 0.20942
 H2432 H 0.82363 0.62141 0.20117
 H2433 H 0.79963 0.61969 0.17299
 H2434 H 0.79091 0.60261 0.18133
 H2435 H 0.79282 0.56207 0.23074
 H2436 H 0.78434 0.54485 0.23914
 H2437 H 0.76030 0.54265 0.21112
 H2438 H 0.76865 0.56003 0.20274
 C2439 C 0.80160 1.10225 0.69630
 C2440 C 0.81110 1.10761 0.70153
 C2441 C 0.81620 1.11734 0.69663
 C2442 C 0.81194 1.12197 0.68637
 C2443 C 0.80249 1.11657 0.68110
 C2444 C 0.79739 1.10683 0.68600
 C2445 C 0.79614 1.09198 0.70156
 N2446 N 0.78704 1.08669 0.69648
 N2447 N 0.78215 1.07745 0.70121
 C2448 C 0.78614 1.07312 0.71123
 N2449 N 0.79523 1.07842 0.71631
 N2450 N 0.80011 1.08765 0.71158
 C2451 C 0.78082 1.06275 0.71645
 C2452 C 0.78508 1.05829 0.72678
 C2453 C 0.78030 1.04835 0.73157
 C2454 C 0.77113 1.04264 0.72616
 C2455 C 0.76674 1.04717 0.71592
 C2456 C 0.77154 1.05711 0.71111
 H2457 H 0.81459 1.10432 0.70946
 H2458 H 0.82341 1.12127 0.70099
 H2459 H 0.79902 1.11979 0.67315
 H2460 H 0.79012 1.10290 0.68170
 H2461 H 0.79217 1.06243 0.73117
 H2462 H 0.78374 1.04516 0.73956
 H2463 H 0.75975 1.04289 0.71150
 H2464 H 0.76804 1.06030 0.70314
 C2465 C 0.69791 0.60276 0.30379
 C2466 C 0.70235 0.60741 0.31394
 C2467 C 0.69726 0.61708 0.31896
 C2468 C 0.68759 0.62237 0.31396
 C2469 C 0.68314 0.61771 0.30379
 C2470 C 0.68824 0.60803 0.29877
 C2471 C 0.70331 0.59248 0.29848
 N2472 N 0.69909 0.58803 0.28861
 N2473 N 0.70389 0.57876 0.28388
 C2474 C 0.71312 0.57353 0.28881
 N2475 N 0.71734 0.57799 0.29867
 N2476 N 0.71254 0.58727 0.30340
 C2477 C 0.71834 0.56310 0.28362
 C2478 C 0.72772 0.55751 0.28884
 C2479 C 0.73242 0.54751 0.28407
 C2480 C 0.72783 0.54286 0.27399
 C2481 C 0.71856 0.54853 0.26868
 C2482 C 0.71387 0.55852 0.27343
 H2483 H 0.70978 0.60357 0.31806
 H2484 H 0.70095 0.62033 0.32679
 H2485 H 0.67574 0.62150 0.29963
 H2486 H 0.68457 0.60469 0.29095
 H2487 H 0.73138 0.56079 0.29670
 H2488 H 0.73949 0.54327 0.28842
 H2489 H 0.71495 0.54525 0.26080
 H2490 H 0.70669 0.56262 0.26913
 C2491 C 0.69746 1.10278 0.80403
 C2492 C 0.70204 1.10756 0.81405
 C2493 C 0.69702 1.11730 0.81901
 C2494 C 0.68724 1.12257 0.81409
 C2495 C 0.68267 1.11769 0.80404
 C2496 C 0.68772 1.10796 0.79909
 C2497 C 0.70281 1.09245 0.79876
 N2498 N 0.69857 1.08796 0.78892
 N2499 N 0.70334 1.07867 0.78422
 C2500 C 0.71257 1.07344 0.78915
 N2501 N 0.71683 1.07793 0.79898
 N2502 N 0.71206 1.08724 0.80368
 C2503 C 0.71777 1.06300 0.78397
 C2504 C 0.72711 1.05737 0.78923
 C2505 C 0.73182 1.04737 0.78444
 C2506 C 0.72727 1.04278 0.77431
 C2507 C 0.71804 1.04848 0.76898
 C2508 C 0.71334 1.05846 0.77374
 H2509 H 0.70954 1.10380 0.81810
 H2510 H 0.70091 1.12061 0.82671
 H2511 H 0.67519 1.12133 0.79987
 H2512 H 0.68394 1.10449 0.79137
 H2513 H 0.73073 1.06061 0.79711
 H2514 H 0.73886 1.04311 0.78881
 H2515 H 0.71447 1.04524 0.76106
 H2516 H 0.70620 1.06259 0.76942
 C2517 C 0.19752 0.60290 0.80373
 C2518 C 0.20182 0.60730 0.81405
 C2519 C 0.19673 0.61691 0.81918
 C2520 C 0.18719 0.62238 0.81412
 C2521 C 0.18290 0.61799 0.80377
 C2522 C 0.18800 0.60838 0.79864
 C2523 C 0.20287 0.59263 0.79835
 N2524 N 0.19876 0.58836 0.78836
 N2525 N 0.20347 0.57905 0.78362
 C2526 C 0.21251 0.57361 0.78866
 N2527 N 0.21665 0.57790 0.79864
 N2528 N 0.21193 0.58721 0.80337
 C2529 C 0.21763 0.56310 0.78351
 C2530 C 0.22674 0.55728 0.78895
 C2531 C 0.23138 0.54723 0.78423
 C2532 C 0.22704 0.54277 0.77395
 C2533 C 0.21802 0.54866 0.76844
 C2534 C 0.21337 0.55870 0.77316
 H2535 H 0.20913 0.60330 0.81822
 H2536 H 0.20027 0.61994 0.82716
 H2537 H 0.17562 0.62196 0.79956
 H2538 H 0.18445 0.60523 0.79069
 H2539 H 0.23022 0.56040 0.79694
 H2540 H 0.23823 0.54283 0.78876
 H2541 H 0.21459 0.54554 0.76042
 H2542 H 0.20640 0.56298 0.76870
 C2543 C 0.19698 1.10310 0.30275
 C2544 C 0.20337 1.10982 0.31047
 C2545 C 0.19847 1.11954 0.31559
 C2546 C 0.18708 1.12281 0.31307
 C2547 C 0.18070 1.11610 0.30534
 C2548 C 0.18557 1.10634 0.30027
 C2549 C 0.20216 1.09276 0.29735
 N2550 N 0.19569 1.08564 0.29074
 N2551 N 0.20032 1.07632 0.28593
 C2552 C 0.21164 1.07374 0.28750
 N2553 N 0.21811 1.08087 0.29408
 N2554 N 0.21347 1.09018 0.29890
 C2555 C 0.21677 1.06330 0.28224
 C2556 C 0.22867 1.06116 0.28305
 C2557 C 0.23346 1.05121 0.27827
 C2558 C 0.22647 1.04314 0.27261
 C2559 C 0.21459 1.04533 0.27171
 C2560 C 0.20979 1.05529 0.27645
 H2561 H 0.21218 1.10757 0.31258
 H2562 H 0.20368 1.12455 0.32142
 H2563 H 0.17187 1.11828 0.30328
 H2564 H 0.18039 1.10136 0.29438
 H2565 H 0.23431 1.06717 0.28737
 H2566 H 0.24268 1.04989 0.27895
 H2567 H 0.20893 1.03921 0.26754
 H2568 H 0.20059 1.05663 0.27570
 C2569 C 0.69662 0.39745 0.69665
 C2570 C 0.69011 0.38972 0.70327
 C2571 C 0.68515 0.37995 0.69831
 C2572 C 0.68669 0.37762 0.68665
 C2573 C 0.69322 0.38533 0.68003
 C2574 C 0.69807 0.39516 0.68496
 C2575 C 0.70187 0.40783 0.70187
 N2576 N 0.70620 0.41639 0.69522
 N2577 N 0.71092 0.42573 0.69988
 C2578 C 0.71158 0.42688 0.71140
 N2579 N 0.70728 0.41831 0.71805
 N2580 N 0.70251 0.40899 0.71339
 C2581 C 0.71682 0.43731 0.71654
 C2582 C 0.71969 0.43759 0.72819
 C2583 C 0.72464 0.44746 0.73300
 C2584 C 0.72673 0.45730 0.72629
 C2585 C 0.72381 0.45700 0.71465
 C2586 C 0.71897 0.44711 0.70983
 H2587 H 0.68879 0.39125 0.71229
 H2588 H 0.68024 0.37414 0.70367
 H2589 H 0.69448 0.38386 0.67100
 H2590 H 0.70304 0.40093 0.67961
 H2591 H 0.71821 0.43016 0.73359
 H2592 H 0.72694 0.44731 0.74195
 H2593 H 0.72507 0.46448 0.70927
 H2594 H 0.71679 0.44722 0.70085
 C2595 C 0.69679 -0.10240 0.19740
 C2596 C 0.70228 -0.10787 0.18818
 C2597 C 0.69737 -0.11755 0.18303
 C2598 C 0.68683 -0.12204 0.18697
 C2599 C 0.68134 -0.11655 0.19618
 C2600 C 0.68625 -0.10686 0.20133
 C2601 C 0.70203 -0.09212 0.20286
 N2602 N 0.69670 -0.08672 0.21170
 N2603 N 0.70140 -0.07746 0.21655
 C2604 C 0.71162 -0.07320 0.21279
 N2605 N 0.71695 -0.07861 0.20397
 N2606 N 0.71226 -0.08787 0.19912
 C2607 C 0.71679 -0.06279 0.21807
 C2608 C 0.72738 -0.05846 0.21412
 C2609 C 0.73215 -0.04851 0.21888
 C2610 C 0.72645 -0.04264 0.22772
 C2611 C 0.71594 -0.04704 0.23179
 C2612 C 0.71116 -0.05700 0.22702
 H2613 H 0.71041 -0.10467 0.18492
 H2614 H 0.70191 -0.12152 0.17601
 H2615 H 0.67319 -0.11966 0.19944
 H2616 H 0.68177 -0.10287 0.20840
 H2617 H 0.73200 -0.06272 0.20729
 H2618 H 0.74035 -0.04543 0.21568
 H2619 H 0.71128 -0.04264 0.23851
 H2620 H 0.70299 -0.06009 0.23028
 C2621 C 0.19766 0.39726 0.19623
 C2622 C 0.20173 0.39295 0.18578
 C2623 C 0.19668 0.38323 0.18082
 C2624 C 0.18744 0.37755 0.18619
 C2625 C 0.18339 0.38187 0.19665
 C2626 C 0.18843 0.39159 0.20161
 C2627 C 0.20299 0.40761 0.20148
 N2628 N 0.19907 0.41177 0.21159
 N2629 N 0.20379 0.42110 0.21628
 C2630 C 0.21263 0.42668 0.21106
 N2631 N 0.21656 0.42252 0.20096
 N2632 N 0.21184 0.41318 0.19627
 C2633 C 0.21777 0.43716 0.21623
 C2634 C 0.22678 0.44308 0.21074
 C2635 C 0.23145 0.45309 0.21554
 C2636 C 0.22721 0.45740 0.22593
 C2637 C 0.21829 0.45142 0.23147
 C2638 C 0.21363 0.44143 0.22668
 H2639 H 0.20881 0.39710 0.18138
 H2640 H 0.20003 0.38025 0.17273
 H2641 H 0.17635 0.37774 0.20110
 H2642 H 0.18507 0.39466 0.20967
 H2643 H 0.23018 0.44006 0.20268
 H2644 H 0.23823 0.45757 0.21100
 H2645 H 0.21495 0.45442 0.23956
 H2646 H 0.20673 0.43707 0.23118
 C2647 C 0.19654 -0.10284 0.69731
 C2648 C 0.18616 -0.10748 0.70143
 C2649 C 0.18120 -0.11713 0.69623
 C2650 C 0.18650 -0.12240 0.68677
 C2651 C 0.19689 -0.11773 0.68267
 C2652 C 0.20185 -0.10809 0.68787
 C2653 C 0.20180 -0.09257 0.70280
 N2654 N 0.21193 -0.08820 0.69893
 N2655 N 0.21661 -0.07894 0.70379
 C2656 C 0.21138 -0.07365 0.71274
 N2657 N 0.20126 -0.07804 0.71662
 N2658 N 0.19657 -0.08730 0.71176
 C2659 C 0.21654 -0.06323 0.71802
 C2660 C 0.21092 -0.05751 0.72702
 C2661 C 0.21567 -0.04753 0.73180
 C2662 C 0.22612 -0.04305 0.72768
 C2663 C 0.23180 -0.04885 0.71879
 C2664 C 0.22707 -0.05882 0.71402
 H2665 H 0.18182 -0.10366 0.70868
 H2666 H 0.17320 -0.12039 0.69967
 H2667 H 0.20128 -0.12149 0.67544
 H2668 H 0.20985 -0.10474 0.68445
 H2669 H 0.20279 -0.06065 0.73032
 H2670 H 0.21102 -0.04318 0.73856
 H2671 H 0.23996 -0.04572 0.71555
 H2672 H 0.23167 -0.06303 0.70715
 C2673 C 0.30379 0.30195 0.39836
 C2674 C 0.31406 0.29757 0.39369
 C2675 C 0.31897 0.30264 0.38402
 C2676 C 0.31374 0.31221 0.37875
 C2677 C 0.30347 0.31658 0.38344
 C2678 C 0.29857 0.31151 0.39311
 C2679 C 0.29858 0.29661 0.40865
 N2680 N 0.28855 0.30071 0.41302
 N2681 N 0.28389 0.29598 0.42229
 C2682 C 0.28905 0.28693 0.42760
 N2683 N 0.29909 0.28282 0.42322
 N2684 N 0.30375 0.28755 0.41394
 C2685 C 0.28392 0.28178 0.43801
 C2686 C 0.28947 0.27270 0.44377
 C2687 C 0.28473 0.26804 0.45373
 C2688 C 0.27434 0.27236 0.45816
 C2689 C 0.26872 0.28134 0.45232
 C2690 C 0.27345 0.28599 0.44238
 H2691 H 0.31833 0.29022 0.39751
 H2692 H 0.32688 0.29900 0.38073
 H2693 H 0.29913 0.32390 0.37968
 H2694 H 0.29066 0.31513 0.39647
 H2695 H 0.29755 0.26925 0.44066
 H2696 H 0.28933 0.26121 0.45810
 H2697 H 0.26060 0.28472 0.45541
 H2698 H 0.26889 0.29293 0.43813
 C2699 C 0.30387 0.80221 -0.10197
 C2700 C 0.31408 0.79776 -0.10667
 C2701 C 0.31895 0.80272 -0.11641
 C2702 C 0.31374 0.81228 -0.12172
 C2703 C 0.30350 0.81672 -0.11701
 C2704 C 0.29864 0.81175 -0.10727
 C2705 C 0.29872 0.79697 -0.09160
 N2706 N 0.28873 0.80113 -0.08718
 N2707 N 0.28413 0.79647 -0.07784
 C2708 C 0.28931 0.78744 -0.07252
 N2709 N 0.29930 0.78326 -0.07694
 N2710 N 0.30390 0.78792 -0.08629
 C2711 C 0.28423 0.78234 -0.06205
 C2712 C 0.28979 0.77326 -0.05629
 C2713 C 0.28509 0.76862 -0.04631
 C2714 C 0.27471 0.77296 -0.04185
 C2715 C 0.26909 0.78195 -0.04766
 C2716 C 0.27379 0.78659 -0.05763
 H2717 H 0.31836 0.79042 -0.10282
 H2718 H 0.32683 0.79903 -0.11971
 H2719 H 0.29917 0.82403 -0.12080
 H2720 H 0.29076 0.81541 -0.10389
 H2721 H 0.29785 0.76978 -0.05944
 H2722 H 0.28969 0.76178 -0.04196
 H2723 H 0.26099 0.78535 -0.04455
 H2724 H 0.26923 0.79353 -0.06186
 C2725 C 0.80404 0.30288 -0.10157
 C2726 C 0.81439 0.29861 -0.10615
 C2727 C 0.81929 0.30368 -0.11582
 C2728 C 0.81399 0.31316 -0.12117
 C2729 C 0.80365 0.31744 -0.11656
 C2730 C 0.79874 0.31237 -0.10689
 C2731 C 0.79881 0.29750 -0.09131
 N2732 N 0.78870 0.30151 -0.08702
 N2733 N 0.78401 0.29673 -0.07779
 C2734 C 0.78921 0.28773 -0.07245
 N2735 N 0.79932 0.28370 -0.07674
 N2736 N 0.80401 0.28848 -0.08598
 C2737 C 0.78403 0.28253 -0.06208
 C2738 C 0.78958 0.27345 -0.05629
 C2739 C 0.78479 0.26876 -0.04637
 C2740 C 0.77435 0.27304 -0.04200
 C2741 C 0.76874 0.28200 -0.04786
 C2742 C 0.77351 0.28669 -0.05777
 H2743 H 0.81872 0.29132 -0.10228
 H2744 H 0.82727 0.30013 -0.11904
 H2745 H 0.79924 0.32469 -0.12040
 H2746 H 0.79077 0.31590 -0.10360
 H2747 H 0.79770 0.27004 -0.05935
 H2748 H 0.78939 0.26194 -0.04198
 H2749 H 0.76059 0.28536 -0.04482
 H2750 H 0.76896 0.29361 -0.06203
 C2751 C 0.80384 0.80340 0.39846
 C2752 C 0.81401 0.79892 0.39371
 C2753 C 0.81876 0.80379 0.38386
 C2754 C 0.81346 0.81327 0.37851
 C2755 C 0.80333 0.81781 0.38333
 C2756 C 0.79858 0.81293 0.39317
 C2757 C 0.79871 0.79814 0.40883
 N2758 N 0.78867 0.80221 0.41321
 N2759 N 0.78403 0.79746 0.42249
 C2760 C 0.78924 0.78843 0.42779
 N2761 N 0.79928 0.78436 0.42342
 N2762 N 0.80392 0.78910 0.41413
 C2763 C 0.78410 0.78321 0.43817
 C2764 C 0.78969 0.77414 0.44393
 C2765 C 0.78492 0.76939 0.45383
 C2766 C 0.77446 0.77360 0.45821
 C2767 C 0.76880 0.78257 0.45239
 C2768 C 0.77356 0.78732 0.44250
 H2769 H 0.81830 0.79159 0.39755
 H2770 H 0.82653 0.79999 0.38043
 H2771 H 0.79902 0.82515 0.37955
 H2772 H 0.79076 0.81665 0.39662
 H2773 H 0.79781 0.77077 0.44085
 H2774 H 0.78954 0.76257 0.45819
 H2775 H 0.76064 0.78587 0.45544
 H2776 H 0.76897 0.79424 0.43826
 C2777 C 0.69637 0.30198 0.60116
 C2778 C 0.70159 0.31152 0.60644
 C2779 C 0.69664 0.31658 0.61609
 C2780 C 0.68633 0.31223 0.62072
 C2781 C 0.68111 0.30269 0.61540
 C2782 C 0.68607 0.29764 0.60575
 C2783 C 0.70165 0.29662 0.59092
 N2784 N 0.69650 0.28757 0.58561
 N2785 N 0.70122 0.28281 0.57638
 C2786 C 0.71130 0.28688 0.57208
 N2787 N 0.71646 0.29591 0.57740
 N2788 N 0.71173 0.30068 0.58662
 C2789 C 0.71652 0.28169 0.56173
 C2790 C 0.72704 0.28586 0.55744
 C2791 C 0.73185 0.28117 0.54756
 C2792 C 0.72627 0.27219 0.54171
 C2793 C 0.71582 0.26791 0.54606
 C2794 C 0.71100 0.27261 0.55595
 H2795 H 0.70953 0.31511 0.60314
 H2796 H 0.70097 0.32387 0.61990
 H2797 H 0.67316 0.29908 0.61862
 H2798 H 0.68180 0.29031 0.60190
 H2799 H 0.73157 0.29280 0.56169
 H2800 H 0.74000 0.28453 0.54453
 H2801 H 0.71125 0.26108 0.54168
 H2802 H 0.70288 0.26919 0.55900
 C2803 C 0.69697 0.80225 1.10135
 C2804 C 0.70211 0.81186 1.10658
 C2805 C 0.69714 0.81691 1.11622
 C2806 C 0.68689 0.81248 1.12089
 C2807 C 0.68175 0.80286 1.11564
 C2808 C 0.68672 0.79782 1.10599
 C2809 C 0.70224 0.79689 1.09110
 N2810 N 0.69712 0.78780 1.08584
 N2811 N 0.70183 0.78304 1.07661
 C2812 C 0.71186 0.78716 1.07224
 N2813 N 0.71698 0.79624 1.07752
 N2814 N 0.71228 0.80100 1.08674
 C2815 C 0.71705 0.78197 1.06188
 C2816 C 0.72754 0.78616 1.05754
 C2817 C 0.73233 0.78145 1.04765
 C2818 C 0.72676 0.77243 1.04185
 C2819 C 0.71634 0.76814 1.04625
 C2820 C 0.71154 0.77285 1.05615
 H2821 H 0.71000 0.81551 1.10322
 H2822 H 0.70140 0.82427 1.11997
 H2823 H 0.67386 0.79917 1.11890
 H2824 H 0.68251 0.79043 1.10220
 H2825 H 0.73207 0.79312 1.06175
 H2826 H 0.74046 0.78482 1.04458
 H2827 H 0.71176 0.76129 1.04191
 H2828 H 0.70344 0.76942 1.05924
 C2829 C 0.19680 0.30153 1.10133
 C2830 C 0.20317 0.30914 1.10820
 C2831 C 0.19821 0.31419 1.11784
 C2832 C 0.18675 0.31172 1.12088
 C2833 C 0.18038 0.30409 1.11403
 C2834 C 0.18533 0.29908 1.10436
 C2835 C 0.20208 0.29618 1.09110
 N2836 N 0.19571 0.28955 1.08393
 N2837 N 0.20045 0.28480 1.07471
 C2838 C 0.21178 0.28645 1.07228
 N2839 N 0.21816 0.29306 1.07946
 N2840 N 0.21341 0.29783 1.08867
 C2841 C 0.21704 0.28127 1.06195
 C2842 C 0.22892 0.28235 1.05986
 C2843 C 0.23383 0.27768 1.05000
 C2844 C 0.22697 0.27183 1.04199
 C2845 C 0.21511 0.27065 1.04413
 C2846 C 0.21020 0.27530 1.05400
 H2847 H 0.21202 0.31124 1.10613
 H2848 H 0.20342 0.31994 1.12295
 H2849 H 0.17151 0.30206 1.11604
 H2850 H 0.18016 0.29326 1.09926
 H2851 H 0.23446 0.28681 1.06583
 H2852 H 0.24303 0.27857 1.04869
 H2853 H 0.20957 0.26634 1.03806
 H2854 H 0.20102 0.27433 1.05531
 C2855 C 0.19692 0.80174 0.60138
 C2856 C 0.20204 0.81135 0.60664
 C2857 C 0.19706 0.81636 0.61629
 C2858 C 0.18682 0.81189 0.62096
 C2859 C 0.18171 0.80227 0.61569
 C2860 C 0.18669 0.79726 0.60603
 C2861 C 0.20218 0.79646 0.59110
 N2862 N 0.19711 0.78735 0.58584
 N2863 N 0.20180 0.78266 0.57656
 C2864 C 0.21177 0.78688 0.57216
 N2865 N 0.21685 0.79599 0.57744
 N2866 N 0.21216 0.80067 0.58670
 C2867 C 0.21694 0.78177 0.56175
 C2868 C 0.22736 0.78606 0.55736
 C2869 C 0.23214 0.78140 0.54744
 C2870 C 0.22661 0.77234 0.54167
 C2871 C 0.21625 0.76796 0.54611
 C2872 C 0.21147 0.77262 0.55604
 H2873 H 0.20992 0.81504 0.60329
 H2874 H 0.20131 0.82372 0.62006
 H2875 H 0.17383 0.79855 0.61895
 H2876 H 0.18250 0.78987 0.60221
 H2877 H 0.23185 0.79306 0.56156
 H2878 H 0.24023 0.78485 0.54434
 H2879 H 0.21172 0.76107 0.54179
 H2880 H 0.20342 0.76910 0.55917
 C2881 C 0.30330 0.69797 0.60163
 C2882 C 0.29803 0.68844 0.60689
 C2883 C 0.30291 0.68337 0.61658
 C2884 C 0.31319 0.68770 0.62127
 C2885 C 0.31845 0.69725 0.61600
 C2886 C 0.31358 0.70231 0.60631
 C2887 C 0.29813 0.70332 0.59133
 N2888 N 0.30332 0.71237 0.58605
 N2889 N 0.29868 0.71712 0.57677
 C2890 C 0.28865 0.71304 0.57237
 N2891 N 0.28345 0.70401 0.57766
 N2892 N 0.28809 0.69925 0.58694
 C2893 C 0.28354 0.71823 0.56195
 C2894 C 0.27307 0.71406 0.55756
 C2895 C 0.26836 0.71876 0.54761
 C2896 C 0.27402 0.72773 0.54181
 C2897 C 0.28442 0.73200 0.54627
 C2898 C 0.28913 0.72731 0.55622
 H2899 H 0.29012 0.68486 0.60352
 H2900 H 0.29854 0.67608 0.62034
 H2901 H 0.32637 0.70085 0.61929
 H2902 H 0.31788 0.70964 0.60249
 H2903 H 0.26848 0.70713 0.56177
 H2904 H 0.26024 0.71540 0.54450
 H2905 H 0.28904 0.73883 0.54193
 H2906 H 0.29721 0.73073 0.55936
 C2907 C 0.30245 0.19768 1.10202
 C2908 C 0.29690 0.18864 1.10784
 C2909 C 0.30199 0.18357 1.11742
 C2910 C 0.31272 0.18743 1.12146
 C2911 C 0.31822 0.19654 1.11570
 C2912 C 0.31316 0.20158 1.10609
 C2913 C 0.29718 0.20293 1.09172
 N2914 N 0.30303 0.21088 1.08547
 N2915 N 0.29837 0.21549 1.07614
 C2916 C 0.28765 0.21237 1.07265
 N2917 N 0.28178 0.20445 1.07891
 N2918 N 0.28645 0.19982 1.08824
 C2919 C 0.28253 0.21741 1.06217
 C2920 C 0.27105 0.21501 1.05913
 C2921 C 0.26628 0.21967 1.04919
 C2922 C 0.27289 0.22681 1.04202
 C2923 C 0.28435 0.22923 1.04508
 C2924 C 0.28910 0.22461 1.05504
 H2925 H 0.28864 0.18543 1.10496
 H2926 H 0.29744 0.17665 1.12169
 H2927 H 0.32653 0.19970 1.11848
 H2928 H 0.31768 0.20853 1.10184
 H2929 H 0.26572 0.20955 1.06445
 H2930 H 0.25738 0.21777 1.04718
 H2931 H 0.28973 0.23454 1.03966
 H2932 H 0.29799 0.22660 1.05708
 C2933 C 0.80352 0.69768 1.10157
 C2934 C 0.81370 0.70214 1.10634
 C2935 C 0.81849 0.69721 1.11614
 C2936 C 0.81324 0.68766 1.12143
 C2937 C 0.80309 0.68316 1.11660
 C2938 C 0.79830 0.68810 1.10681
 C2939 C 0.79838 0.70298 1.09122
 N2940 N 0.78834 0.69892 1.08683
 N2941 N 0.78371 0.70367 1.07755
 C2942 C 0.78891 0.71270 1.07226
 N2943 N 0.79895 0.71677 1.07665
 N2944 N 0.80358 0.71201 1.08594
 C2945 C 0.78379 0.71793 1.06186
 C2946 C 0.78940 0.72697 1.05611
 C2947 C 0.78465 0.73174 1.04620
 C2948 C 0.77418 0.72756 1.04181
 C2949 C 0.76851 0.71861 1.04763
 C2950 C 0.77325 0.71385 1.05753
 H2951 H 0.81796 0.70951 1.10255
 H2952 H 0.82626 0.70099 1.11959
 H2953 H 0.79882 0.67578 1.12032
 H2954 H 0.79048 0.68440 1.10334
 H2955 H 0.79754 0.73032 1.05919
 H2956 H 0.78929 0.73854 1.04184
 H2957 H 0.76034 0.71533 1.04456
 H2958 H 0.76864 0.70694 1.06176
 C2959 C 0.80309 0.19778 0.60150
 C2960 C 0.81324 0.20230 0.60628
 C2961 C 0.81808 0.19736 0.61605
 C2962 C 0.81290 0.18775 0.62130
 C2963 C 0.80277 0.18321 0.61648
 C2964 C 0.79793 0.18816 0.60671
 C2965 C 0.79792 0.20308 0.59117
 N2966 N 0.78791 0.19897 0.58676
 N2967 N 0.78326 0.20373 0.57748
 C2968 C 0.78843 0.21279 0.57221
 N2969 N 0.79845 0.21690 0.57663
 N2970 N 0.80309 0.21215 0.58591
 C2971 C 0.78332 0.21800 0.56181
 C2972 C 0.78893 0.22705 0.55607
 C2973 C 0.78421 0.23178 0.54613
 C2974 C 0.77377 0.22756 0.54170
 C2975 C 0.76810 0.21860 0.54751
 C2976 C 0.77281 0.21388 0.55744
 H2977 H 0.81745 0.20971 0.60250
 H2978 H 0.82583 0.20117 0.61949
 H2979 H 0.79854 0.17579 0.62018
 H2980 H 0.79013 0.18442 0.60324
 H2981 H 0.79703 0.23044 0.55918
 H2982 H 0.78885 0.23859 0.54178
 H2983 H 0.75995 0.21529 0.54442
 H2984 H 0.76821 0.20697 0.56167
 C2985 C 0.69724 0.69862 0.39884
 C2986 C 0.70243 0.68903 0.39361
 C2987 C 0.69747 0.68395 0.38398
 C2988 C 0.68719 0.68832 0.37931
 C2989 C 0.68200 0.69791 0.38457
 C2990 C 0.68695 0.70299 0.39420
 C2991 C 0.70251 0.70402 0.40905
 N2992 N 0.69737 0.71311 0.41430
 N2993 N 0.70209 0.71792 0.42350
 C2994 C 0.71216 0.71386 0.42785
 N2995 N 0.71731 0.70478 0.42259
 N2996 N 0.71259 0.69997 0.41339
 C2997 C 0.71737 0.71911 0.43817
 C2998 C 0.72789 0.71497 0.44250
 C2999 C 0.73268 0.71973 0.45237
 C3000 C 0.72708 0.72874 0.45815
 C3001 C 0.71663 0.73298 0.45376
 C3002 C 0.71182 0.72822 0.44389
 H3003 H 0.71035 0.68542 0.39695
 H3004 H 0.70178 0.67661 0.38023
 H3005 H 0.67407 0.70155 0.38130
 H3006 H 0.68271 0.71036 0.39800
 H3007 H 0.73243 0.70801 0.43830
 H3008 H 0.74083 0.71639 0.45543
 H3009 H 0.71203 0.73982 0.45809
 H3010 H 0.70370 0.73161 0.44081
 C3011 C 0.69705 0.19831 -0.10123
 C3012 C 0.68678 0.20269 -0.10588
 C3013 C 0.68181 0.19759 -0.11550
 C3014 C 0.68698 0.18797 -0.12072
 C3015 C 0.69725 0.18359 -0.11604
 C3016 C 0.70222 0.18870 -0.10642
 C3017 C 0.70232 0.20372 -0.09102
 N3018 N 0.71239 0.19967 -0.08667
 N3019 N 0.71710 0.20449 -0.07748
 C3020 C 0.71195 0.21358 -0.07224
 N3021 N 0.70189 0.21764 -0.07660
 N3022 N 0.69718 0.21282 -0.08579
 C3023 C 0.71714 0.21883 -0.06191
 C3024 C 0.71157 0.22793 -0.05620
 C3025 C 0.71635 0.23269 -0.04631
 C3026 C 0.72679 0.22845 -0.04191
 C3027 C 0.73243 0.21946 -0.04769
 C3028 C 0.72766 0.21470 -0.05757
 H3029 H 0.68254 0.21008 -0.10211
 H3030 H 0.67390 0.20124 -0.11878
 H3031 H 0.70154 0.17623 -0.11976
 H3032 H 0.71013 0.18508 -0.10307
 H3033 H 0.70346 0.23132 -0.05929
 H3034 H 0.71174 0.23952 -0.04198
 H3035 H 0.74058 0.21613 -0.04461
 H3036 H 0.73222 0.20776 -0.06178
 C3037 C 0.19719 0.69865 -0.10105
 C3038 C 0.18698 0.70312 -0.10575
 C3039 C 0.18207 0.69812 -0.11545
 C3040 C 0.18724 0.68851 -0.12070
 C3041 C 0.19747 0.68407 -0.11599
 C3042 C 0.20237 0.68907 -0.10629
 C3043 C 0.20241 0.70393 -0.09075
 N3044 N 0.21242 0.69978 -0.08637
 N3045 N 0.21711 0.70450 -0.07712
 C3046 C 0.21200 0.71358 -0.07183
 N3047 N 0.20198 0.71774 -0.07621
 N3048 N 0.19729 0.71302 -0.08547
 C3049 C 0.21722 0.71875 -0.06147
 C3050 C 0.21173 0.72788 -0.05573
 C3051 C 0.21658 0.73259 -0.04585
 C3052 C 0.22702 0.72829 -0.04149
 C3053 C 0.23255 0.71925 -0.04729
 C3054 C 0.22771 0.71454 -0.05716
 H3055 H 0.18274 0.71050 -0.10195
 H3056 H 0.17421 0.70183 -0.11877
 H3057 H 0.20176 0.67673 -0.11975
 H3058 H 0.21024 0.68539 -0.10291
 H3059 H 0.20364 0.73134 -0.05880
 H3060 H 0.21204 0.73946 -0.04151
 H3061 H 0.24069 0.71586 -0.04424
 H3062 H 0.23222 0.70757 -0.06138
 C3063 C 0.19694 0.19828 0.39871
 C3064 C 0.20202 0.18862 0.39351
 C3065 C 0.19705 0.18362 0.38385
 C3066 C 0.18687 0.18815 0.37911
 C3067 C 0.18179 0.19782 0.38433
 C3068 C 0.18676 0.20281 0.39400
 C3069 C 0.20222 0.20359 0.40896
 N3070 N 0.19719 0.21276 0.41417
 N3071 N 0.20192 0.21750 0.42340
 C3072 C 0.21190 0.21329 0.42781
 N3073 N 0.21694 0.20413 0.42259
 N3074 N 0.21220 0.19938 0.41337
 C3075 C 0.21712 0.21848 0.43816
 C3076 C 0.22756 0.21421 0.44254
 C3077 C 0.23237 0.21892 0.45242
 C3078 C 0.22685 0.22801 0.45817
 C3079 C 0.21648 0.23238 0.45371
 C3080 C 0.21167 0.22767 0.44382
 H3081 H 0.20986 0.18488 0.39691
 H3082 H 0.20126 0.17620 0.38013
 H3083 H 0.17396 0.20159 0.38101
 H3084 H 0.18260 0.21025 0.39778
 H3085 H 0.23204 0.20719 0.43837
 H3086 H 0.24046 0.21549 0.45553
 H3087 H 0.21195 0.23930 0.45801
 H3088 H 0.20361 0.23117 0.44069
 C3089 C 0.30237 0.39852 0.69780
 C3090 C 0.29703 0.39325 0.68839
 C3091 C 0.30193 0.38355 0.68325
 C3092 C 0.31231 0.37887 0.68738
 C3093 C 0.31764 0.38416 0.69680
 C3094 C 0.31274 0.39386 0.70194
 C3095 C 0.29715 0.40883 0.70324
 N3096 N 0.30239 0.41410 0.71220
 N3097 N 0.29772 0.42337 0.71705
 C3098 C 0.28759 0.42777 0.71317
 N3099 N 0.28236 0.42249 0.70422
 N3100 N 0.28703 0.41322 0.69936
 C3101 C 0.28242 0.43816 0.71847
 C3102 C 0.27187 0.44255 0.71447
 C3103 C 0.26711 0.45250 0.71926
 C3104 C 0.27278 0.45830 0.72816
 C3105 C 0.28325 0.45385 0.73227
 C3106 C 0.28802 0.44389 0.72748
 H3107 H 0.28903 0.39660 0.68497
 H3108 H 0.29751 0.37974 0.67607
 H3109 H 0.32565 0.38088 0.70024
 H3110 H 0.31709 0.39769 0.70917
 H3111 H 0.26727 0.43833 0.70761
 H3112 H 0.25893 0.45561 0.71603
 H3113 H 0.28788 0.45819 0.73903
 H3114 H 0.29617 0.44075 0.73077
 C3115 C 0.30251 0.89891 0.19784
 C3116 C 0.31401 0.89587 0.20013
 C3117 C 0.31897 0.88619 0.19500
 C3118 C 0.31256 0.87933 0.18742
 C3119 C 0.30106 0.88237 0.18512
 C3120 C 0.29609 0.89203 0.19028
 C3121 C 0.29725 0.90921 0.20325
 N3122 N 0.28595 0.91178 0.20158
 N3123 N 0.28125 0.92107 0.20637
 C3124 C 0.28763 0.92820 0.21304
 N3125 N 0.29893 0.92562 0.21472
 N3126 N 0.30363 0.91632 0.20994
 C3127 C 0.28242 0.93863 0.21824
 C3128 C 0.28923 0.94644 0.22446
 C3129 C 0.28435 0.95639 0.22916
 C3130 C 0.27256 0.95876 0.22775
 C3131 C 0.26573 0.95090 0.22163
 C3132 C 0.27060 0.94096 0.21692
 H3133 H 0.31922 0.90097 0.20590
 H3134 H 0.32787 0.88418 0.19691
 H3135 H 0.29582 0.87725 0.17941
 H3136 H 0.28721 0.89411 0.18832
 H3137 H 0.29837 0.94495 0.22562
 H3138 H 0.28988 0.96235 0.23370
 H3139 H 0.25658 0.95239 0.22054
 H3140 H 0.26508 0.93510 0.21224
 C3141 C 0.80267 0.39873 0.19735
 C3142 C 0.80940 0.39109 0.20388
 C3143 C 0.81436 0.38135 0.19885
 C3144 C 0.81259 0.37897 0.18723
 C3145 C 0.80583 0.38658 0.18072
 C3146 C 0.80098 0.39638 0.18571
 C3147 C 0.79745 0.40911 0.20261
 N3148 N 0.79312 0.41768 0.19597
 N3149 N 0.78844 0.42703 0.20065
 C3150 C 0.78782 0.42818 0.21216
 N3151 N 0.79212 0.41959 0.21881
 N3152 N 0.79687 0.41026 0.21413
 C3153 C 0.78259 0.43860 0.21731
 C3154 C 0.77949 0.43881 0.22890
 C3155 C 0.77446 0.44865 0.23367
 C3156 C 0.77251 0.45854 0.22699
 C3157 C 0.77571 0.45833 0.21542
 C3158 C 0.78061 0.44847 0.21063
 H3159 H 0.81090 0.39268 0.21286
 H3160 H 0.81946 0.37562 0.20411
 H3161 H 0.80439 0.38506 0.17172
 H3162 H 0.79583 0.40207 0.18044
 H3163 H 0.78084 0.43132 0.23426
 H3164 H 0.77196 0.44844 0.24257
 H3165 H 0.77458 0.46585 0.21007
 H3166 H 0.78299 0.44864 0.20170
 C3167 C 0.80245 0.89903 0.69731
 C3168 C 0.80895 0.89130 0.70394
 C3169 C 0.81396 0.88155 0.69898
 C3170 C 0.81247 0.87925 0.68730
 C3171 C 0.80596 0.88698 0.68067
 C3172 C 0.80106 0.89678 0.68560
 C3173 C 0.79715 0.90939 0.70252
 N3174 N 0.79289 0.91799 0.69587
 N3175 N 0.78813 0.92731 0.70053
 C3176 C 0.78736 0.92841 0.71204
 N3177 N 0.79159 0.91980 0.71870
 N3178 N 0.79640 0.91049 0.71404
 C3179 C 0.78208 0.93881 0.71718
 C3180 C 0.77901 0.93902 0.72877
 C3181 C 0.77398 0.94885 0.73356
 C3182 C 0.77201 0.95875 0.72689
 C3183 C 0.77515 0.95854 0.71531
 C3184 C 0.78006 0.94868 0.71050
 H3185 H 0.81022 0.89280 0.71297
 H3186 H 0.81886 0.87573 0.70434
 H3187 H 0.80474 0.88553 0.67163
 H3188 H 0.79610 0.90256 0.68025
 H3189 H 0.78038 0.93154 0.73414
 H3190 H 0.77151 0.94863 0.74246
 H3191 H 0.77400 0.96606 0.70996
 H3192 H 0.78241 0.94885 0.70156
 C3193 C 0.69791 0.60178 0.69615
 C3194 C 0.70256 0.60660 0.68616
 C3195 C 0.69759 0.61638 0.68120
 C3196 C 0.68783 0.62160 0.68610
 C3197 C 0.68317 0.61676 0.69609
 C3198 C 0.68815 0.60698 0.70105
 C3199 C 0.70320 0.59140 0.70139
 N3200 N 0.69888 0.58684 0.71117
 N3201 N 0.70360 0.57749 0.71584
 C3202 C 0.71285 0.57229 0.71094
 N3203 N 0.71718 0.57685 0.70117
 N3204 N 0.71247 0.58621 0.69650
 C3205 C 0.71800 0.56179 0.71608
 C3206 C 0.72736 0.55619 0.71083
 C3207 C 0.73204 0.54615 0.71558
 C3208 C 0.72746 0.54148 0.72567
 C3209 C 0.71820 0.54715 0.73099
 C3210 C 0.71352 0.55717 0.72626
 H3211 H 0.71007 0.60284 0.68214
 H3212 H 0.70147 0.61978 0.67352
 H3213 H 0.67568 0.62047 0.70015
 H3214 H 0.68433 0.60349 0.70874
 H3215 H 0.73102 0.55949 0.70299
 H3216 H 0.73909 0.54192 0.71122
 H3217 H 0.71460 0.54386 0.73887
 H3218 H 0.70637 0.56128 0.73057
 C3219 C 0.69795 0.10179 0.19639
 C3220 C 0.68842 0.10724 0.20147
 C3221 C 0.68339 0.11694 0.19642
 C3222 C 0.68776 0.12145 0.18615
 C3223 C 0.69730 0.11599 0.18108
 C3224 C 0.70232 0.10629 0.18613
 C3225 C 0.70326 0.09146 0.20170
 N3226 N 0.71232 0.08606 0.19667
 N3227 N 0.71704 0.07673 0.20140
 C3228 C 0.71291 0.07241 0.21136
 N3229 N 0.70386 0.07783 0.21641
 N3230 N 0.69914 0.08715 0.21168
 C3231 C 0.71806 0.06194 0.21656
 C3232 C 0.71385 0.05758 0.22695
 C3233 C 0.71855 0.04759 0.23173
 C3234 C 0.72757 0.04170 0.22625
 C3235 C 0.73187 0.04611 0.21592
 C3236 C 0.72717 0.05611 0.21112
 H3237 H 0.68482 0.10401 0.20937
 H3238 H 0.67610 0.12089 0.20063
 H3239 H 0.70092 0.11912 0.17317
 H3240 H 0.70964 0.10232 0.18196
 H3241 H 0.70689 0.06187 0.23140
 H3242 H 0.71517 0.04452 0.23979
 H3243 H 0.73872 0.04169 0.21141
 H3244 H 0.73062 0.05920 0.20310
 C3245 C 0.19687 0.60210 0.19723
 C3246 C 0.18658 0.60689 0.20141
 C3247 C 0.18170 0.61658 0.19619
 C3248 C 0.18698 0.62173 0.18666
 C3249 C 0.19729 0.61692 0.18251
 C3250 C 0.20217 0.60724 0.18773
 C3251 C 0.20202 0.59176 0.20270
 N3252 N 0.21209 0.58728 0.19881
 N3253 N 0.21668 0.57795 0.20364
 C3254 C 0.21140 0.57268 0.21257
 N3255 N 0.20133 0.57717 0.21648
 N3256 N 0.19674 0.58651 0.21166
 C3257 C 0.21645 0.56218 0.21782
 C3258 C 0.21077 0.55643 0.22677
 C3259 C 0.21543 0.54638 0.23150
 C3260 C 0.22586 0.54184 0.22738
 C3261 C 0.23161 0.54767 0.21854
 C3262 C 0.22696 0.55771 0.21381
 H3263 H 0.18226 0.60316 0.20872
 H3264 H 0.17376 0.61996 0.19967
 H3265 H 0.20167 0.62059 0.17522
 H3266 H 0.21011 0.60379 0.18427
 H3267 H 0.20265 0.55962 0.23006
 H3268 H 0.21073 0.54202 0.23822
 H3269 H 0.23976 0.54451 0.21530
 H3270 H 0.23161 0.56194 0.20698
 C3271 C 0.19766 0.10137 0.69658
 C3272 C 0.18815 0.10683 0.70168
 C3273 C 0.18311 0.11652 0.69662
 C3274 C 0.18745 0.12101 0.68633
 C3275 C 0.19698 0.11554 0.68125
 C3276 C 0.20202 0.10585 0.68631
 C3277 C 0.20301 0.09107 0.70192
 N3278 N 0.21209 0.08568 0.69690
 N3279 N 0.21686 0.07640 0.70166
 C3280 C 0.21275 0.07209 0.71165
 N3281 N 0.20368 0.07748 0.71667
 N3282 N 0.19891 0.08677 0.71191
 C3283 C 0.21794 0.06165 0.71687
 C3284 C 0.21369 0.05728 0.72724
 C3285 C 0.21836 0.04727 0.73201
 C3286 C 0.22738 0.04138 0.72654
 C3287 C 0.23175 0.04583 0.71626
 C3288 C 0.22709 0.05585 0.71147
 H3289 H 0.18457 0.10362 0.70959
 H3290 H 0.17583 0.12048 0.70084
 H3291 H 0.20059 0.11866 0.67333
 H3292 H 0.20933 0.10188 0.68214
 H3293 H 0.20672 0.06156 0.73168
 H3294 H 0.21494 0.04417 0.74005
 H3295 H 0.23862 0.04143 0.71177
 H3296 H 0.23058 0.05897 0.70348
 C3297 C 0.30245 0.60154 0.30223
 C3298 C 0.29709 0.60682 0.31163
 C3299 C 0.30199 0.61651 0.31678
 C3300 C 0.31236 0.62120 0.31267
 C3301 C 0.31772 0.61590 0.30327
 C3302 C 0.31282 0.60620 0.29811
 C3303 C 0.29726 0.59123 0.29679
 N3304 N 0.30252 0.58593 0.28786
 N3305 N 0.29786 0.57664 0.28302
 C3306 C 0.28773 0.57226 0.28690
 N3307 N 0.28247 0.57757 0.29581
 N3308 N 0.28713 0.58685 0.30065
 C3309 C 0.28259 0.56184 0.28163
 C3310 C 0.27204 0.55745 0.28563
 C3311 C 0.26729 0.54750 0.28087
 C3312 C 0.27296 0.54167 0.27199
 C3313 C 0.28343 0.54612 0.26787
 C3314 C 0.28820 0.55609 0.27264
 H3315 H 0.28910 0.60346 0.31504
 H3316 H 0.29755 0.62032 0.32396
 H3317 H 0.32572 0.61918 0.29984
 H3318 H 0.31720 0.60236 0.29089
 H3319 H 0.26744 0.56168 0.29249
 H3320 H 0.25912 0.54439 0.28411
 H3321 H 0.28807 0.54175 0.26112
 H3322 H 0.29633 0.55922 0.26934
 C3323 C 0.30128 0.10140 0.80357
 C3324 C 0.29705 0.10585 0.81390
 C3325 C 0.30212 0.11554 0.81890
 C3326 C 0.31155 0.12105 0.81370
 C3327 C 0.31577 0.11660 0.80334
 C3328 C 0.31069 0.10691 0.79835
 C3329 C 0.29593 0.09108 0.79829
 N3330 N 0.29995 0.08683 0.78825
 N3331 N 0.29520 0.07753 0.78354
 C3332 C 0.28622 0.07206 0.78865
 N3333 N 0.28219 0.07632 0.79868
 N3334 N 0.28694 0.08563 0.80339
 C3335 C 0.28105 0.06161 0.78346
 C3336 C 0.27197 0.05575 0.78891
 C3337 C 0.26730 0.04574 0.78412
 C3338 C 0.27161 0.04136 0.77380
 C3339 C 0.28058 0.04729 0.76828
 C3340 C 0.28525 0.05729 0.77306
 H3341 H 0.28981 0.10183 0.81817
 H3342 H 0.29863 0.11863 0.82688
 H3343 H 0.32296 0.12059 0.79901
 H3344 H 0.31418 0.10373 0.79038
 H3345 H 0.26852 0.05882 0.79693
 H3346 H 0.26047 0.04130 0.78863
 H3347 H 0.28397 0.04424 0.76022
 H3348 H 0.29218 0.06161 0.76859
 C3349 C 0.80135 0.60128 0.80327
 C3350 C 0.79703 0.60584 0.81351
 C3351 C 0.80215 0.61548 0.81854
 C3352 C 0.81174 0.62083 0.81345
 C3353 C 0.81608 0.61625 0.80321
 C3354 C 0.81095 0.60660 0.79818
 C3355 C 0.79592 0.59101 0.79797
 N3356 N 0.80002 0.58662 0.78803
 N3357 N 0.79518 0.57736 0.78332
 C3358 C 0.78604 0.57209 0.78834
 N3359 N 0.78193 0.57649 0.79827
 N3360 N 0.78676 0.58575 0.80298
 C3361 C 0.78079 0.56166 0.78318
 C3362 C 0.77149 0.55604 0.78851
 C3363 C 0.76675 0.54604 0.78376
 C3364 C 0.77122 0.54144 0.77360
 C3365 C 0.78040 0.54715 0.76819
 C3366 C 0.78513 0.55713 0.77292
 H3367 H 0.78966 0.60196 0.81769
 H3368 H 0.79856 0.61866 0.82644
 H3369 H 0.82342 0.62010 0.79899
 H3370 H 0.81452 0.60332 0.79029
 H3371 H 0.76794 0.55927 0.79642
 H3372 H 0.75976 0.54178 0.78818
 H3373 H 0.78390 0.54391 0.76025
 H3374 H 0.79223 0.56127 0.76853
 C3375 C 0.80208 0.10180 0.30307
 C3376 C 0.79770 0.10635 0.31329
 C3377 C 0.80274 0.11605 0.31829
 C3378 C 0.81230 0.12145 0.31321
 C3379 C 0.81669 0.11688 0.30298
 C3380 C 0.81164 0.10718 0.29797
 C3381 C 0.79673 0.09149 0.29779
 N3382 N 0.80084 0.08714 0.28783
 N3383 N 0.79606 0.07785 0.28313
 C3384 C 0.78697 0.07251 0.28817
 N3385 N 0.78285 0.07687 0.29812
 N3386 N 0.78762 0.08616 0.30282
 C3387 C 0.78176 0.06207 0.28300
 C3388 C 0.77261 0.05631 0.28844
 C3389 C 0.76788 0.04633 0.28367
 C3390 C 0.77218 0.04189 0.27336
 C3391 C 0.78123 0.04773 0.26786
 C3392 C 0.78596 0.05769 0.27263
 H3393 H 0.79036 0.10243 0.31746
 H3394 H 0.79910 0.11922 0.32617
 H3395 H 0.82400 0.12077 0.29876
 H3396 H 0.81525 0.10390 0.29010
 H3397 H 0.76917 0.05942 0.29645
 H3398 H 0.76101 0.04195 0.28817
 H3399 H 0.78461 0.04462 0.25982
 H3400 H 0.79295 0.06194 0.26817
 C3401 C 0.69675 0.39857 0.30304
 C3402 C 0.69039 0.39075 0.29638
 C3403 C 0.68551 0.38092 0.30133
 C3404 C 0.68699 0.37863 0.31301
 C3405 C 0.69337 0.38643 0.31966
 C3406 C 0.69815 0.39631 0.31474
 C3407 C 0.70191 0.40901 0.29784
 N3408 N 0.70600 0.41767 0.30450
 N3409 N 0.71064 0.42706 0.29986
 C3410 C 0.71145 0.42819 0.28836
 N3411 N 0.70739 0.41952 0.28168
 N3412 N 0.70270 0.41014 0.28632
 C3413 C 0.71663 0.43866 0.28323
 C3414 C 0.71978 0.43890 0.27166
 C3415 C 0.72473 0.44878 0.26688
 C3416 C 0.72653 0.45871 0.27353
 C3417 C 0.72330 0.45846 0.28510
 C3418 C 0.71848 0.44855 0.28990
 H3419 H 0.68912 0.39225 0.28734
 H3420 H 0.68071 0.37505 0.29596
 H3421 H 0.69459 0.38498 0.32870
 H3422 H 0.70301 0.40214 0.32011
 H3423 H 0.71855 0.43139 0.26630
 H3424 H 0.72727 0.44858 0.25800
 H3425 H 0.72434 0.46600 0.29044
 H3426 H 0.71607 0.44870 0.29882
 C3427 C 0.69673 0.89853 0.80325
 C3428 C 0.68998 0.89093 0.79672
 C3429 C 0.68507 0.88114 0.80172
 C3430 C 0.68692 0.87867 0.81331
 C3431 C 0.69370 0.88623 0.81982
 C3432 C 0.69850 0.89608 0.81486
 C3433 C 0.70187 0.90896 0.79801
 N3434 N 0.70626 0.91749 0.80466
 N3435 N 0.71086 0.92689 0.79999
 C3436 C 0.71133 0.92814 0.78848
 N3437 N 0.70698 0.91960 0.78183
 N3438 N 0.70232 0.91022 0.78650
 C3439 C 0.71645 0.93863 0.78333
 C3440 C 0.71934 0.93895 0.77169
 C3441 C 0.72425 0.94885 0.76690
 C3442 C 0.72626 0.95870 0.77361
 C3443 C 0.72328 0.95837 0.78523
 C3444 C 0.71850 0.94844 0.79005
 H3445 H 0.68842 0.89258 0.78776
 H3446 H 0.67995 0.87544 0.79645
 H3447 H 0.69520 0.88464 0.82880
 H3448 H 0.70367 0.90174 0.82014
 H3449 H 0.71794 0.93151 0.76630
 H3450 H 0.72659 0.94872 0.75796
 H3451 H 0.72447 0.96586 0.79062
 H3452 H 0.71629 0.94853 0.79902
 C3453 C 0.19629 0.39812 0.80317
 C3454 C 0.18588 0.39348 0.79909
 C3455 C 0.18108 0.38367 0.80416
 C3456 C 0.18656 0.37826 0.81344
 C3457 C 0.19695 0.38294 0.81753
 C3458 C 0.20175 0.39273 0.81246
 C3459 C 0.20143 0.40849 0.79778
 N3460 N 0.21158 0.41285 0.80160
 N3461 N 0.21620 0.42217 0.79679
 C3462 C 0.21088 0.42755 0.78794
 N3463 N 0.20072 0.42319 0.78411
 N3464 N 0.19610 0.41386 0.78892
 C3465 C 0.21600 0.43800 0.78268
 C3466 C 0.21035 0.44379 0.77373
 C3467 C 0.21509 0.45378 0.76896
 C3468 C 0.22558 0.45822 0.77305
 C3469 C 0.23130 0.45235 0.78189
 C3470 C 0.22656 0.44238 0.78666
 H3471 H 0.18142 0.39741 0.79197
 H3472 H 0.17304 0.38041 0.80081
 H3473 H 0.20149 0.37900 0.82460
 H3474 H 0.20978 0.39605 0.81583
 H3475 H 0.20220 0.44067 0.77046
 H3476 H 0.21043 0.45817 0.76223
 H3477 H 0.23948 0.45545 0.78510
 H3478 H 0.23119 0.43812 0.79349
 C3479 C 0.19705 0.89844 0.30258
 C3480 C 0.18592 0.89475 0.29956
 C3481 C 0.18106 0.88499 0.30466
 C3482 C 0.18720 0.87871 0.31294
 C3483 C 0.19832 0.88242 0.31597
 C3484 C 0.20319 0.89215 0.31085
 C3485 C 0.20223 0.90877 0.29715
 N3486 N 0.21319 0.91201 0.29965
 N3487 N 0.21784 0.92131 0.29482
 C3488 C 0.21173 0.92778 0.28729
 N3489 N 0.20076 0.92455 0.28478
 N3490 N 0.19612 0.91524 0.28960
 C3491 C 0.21687 0.93823 0.28203
 C3492 C 0.21028 0.94537 0.27484
 C3493 C 0.21506 0.95536 0.27012
 C3494 C 0.22653 0.95844 0.27247
 C3495 C 0.23316 0.95122 0.27954
 C3496 C 0.22839 0.94125 0.28427
 H3497 H 0.18093 0.89939 0.29323
 H3498 H 0.17245 0.88247 0.30217
 H3499 H 0.20337 0.87777 0.32223
 H3500 H 0.21178 0.89474 0.31339
 H3501 H 0.20138 0.94333 0.27295
 H3502 H 0.20969 0.96081 0.26482
 H3503 H 0.24208 0.95326 0.28137
 H3504 H 0.23374 0.93591 0.28971
 C3505 C 0.39742 0.30303 0.69754
 C3506 C 0.39277 0.31337 0.70175
 C3507 C 0.38307 0.31834 0.69665
 C3508 C 0.37777 0.31310 0.68719
 C3509 C 0.38244 0.30275 0.68297
 C3510 C 0.39213 0.29778 0.68808
 C3511 C 0.40771 0.29776 0.70294
 N3512 N 0.41209 0.28766 0.69899
 N3513 N 0.42136 0.28294 0.70381
 C3514 C 0.42665 0.28810 0.71279
 N3515 N 0.42226 0.29819 0.71676
 N3516 N 0.41299 0.30292 0.71194
 C3517 C 0.43706 0.28289 0.71805
 C3518 C 0.44279 0.28842 0.72709
 C3519 C 0.45277 0.28362 0.73183
 C3520 C 0.45723 0.27318 0.72764
 C3521 C 0.45141 0.26758 0.71871
 C3522 C 0.44145 0.27237 0.71397
 H3523 H 0.39661 0.31767 0.70901
 H3524 H 0.37981 0.32632 0.70015
 H3525 H 0.37862 0.29839 0.67575
 H3526 H 0.39547 0.28981 0.68460
 H3527 H 0.43966 0.29654 0.73044
 H3528 H 0.45712 0.28821 0.73862
 H3529 H 0.45453 0.25943 0.71542
 H3530 H 0.43723 0.26782 0.70707
 C3531 C 0.39765 0.80354 0.19774
 C3532 C 0.39252 0.79843 0.18813
 C3533 C 0.38292 0.80348 0.18293
 C3534 C 0.37817 0.81376 0.18721
 C3535 C 0.38331 0.81886 0.19684
 C3536 C 0.39292 0.81382 0.20204
 C3537 C 0.40788 0.79822 0.20322
 N3538 N 0.41311 0.80334 0.21226
 N3539 N 0.42237 0.79861 0.21711
 C3540 C 0.42678 0.78854 0.21312
 N3541 N 0.42153 0.78341 0.20409
 N3542 N 0.41229 0.78814 0.19924
 C3543 C 0.43719 0.78333 0.21837
 C3544 C 0.44155 0.77279 0.21433
 C3545 C 0.45151 0.76800 0.21906
 C3546 C 0.45736 0.77363 0.22796
 C3547 C 0.45293 0.78409 0.23212
 C3548 C 0.44296 0.78889 0.22738
 H3549 H 0.39594 0.79052 0.18458
 H3550 H 0.37927 0.79925 0.17555
 H3551 H 0.37997 0.82676 0.20043
 H3552 H 0.39663 0.81800 0.20943
 H3553 H 0.43731 0.76823 0.20745
 H3554 H 0.45460 0.75983 0.21580
 H3555 H 0.45731 0.78870 0.23888
 H3556 H 0.43985 0.79703 0.23070
 C3557 C 0.89748 0.30281 0.19709
 C3558 C 0.89445 0.30028 0.18575
 C3559 C 0.88468 0.30525 0.18079
 C3560 C 0.87774 0.31292 0.18703
 C3561 C 0.88079 0.31549 0.19835
 C3562 C 0.89052 0.31048 0.20333
 C3563 C 0.90781 0.29749 0.20236
 N3564 N 0.91029 0.29920 0.21356
 N3565 N 0.91958 0.29442 0.21828
 C3566 C 0.92680 0.28773 0.21200
 N3567 N 0.92433 0.28603 0.20080
 N3568 N 0.91503 0.29079 0.19609
 C3569 C 0.93721 0.28250 0.21722
 C3570 C 0.94517 0.27641 0.21048
 C3571 C 0.95509 0.27166 0.21535
 C3572 C 0.95728 0.27286 0.22708
 C3573 C 0.94927 0.27885 0.23385
 C3574 C 0.93936 0.28362 0.22898
 H3575 H 0.89961 0.29443 0.18068
 H3576 H 0.88268 0.30315 0.17202
 H3577 H 0.87560 0.32128 0.20344
 H3578 H 0.89260 0.31263 0.21208
 H3579 H 0.94382 0.27541 0.20139
 H3580 H 0.96117 0.26724 0.20988
 H3581 H 0.95062 0.27977 0.24295
 H3582 H 0.93338 0.28819 0.23444
 C3583 C 0.89741 0.80332 0.69803
 C3584 C 0.89282 0.81372 0.70217
 C3585 C 0.88309 0.81864 0.69710
 C3586 C 0.87769 0.81329 0.68774
 C3587 C 0.88232 0.80290 0.68360
 C3588 C 0.89204 0.79798 0.68868
 C3589 C 0.90774 0.79807 0.70341
 N3590 N 0.91209 0.78795 0.69948
 N3591 N 0.92138 0.78324 0.70427
 C3592 C 0.92674 0.78845 0.71319
 N3593 N 0.92238 0.79857 0.71713
 N3594 N 0.91308 0.80327 0.71235
 C3595 C 0.93717 0.78325 0.71840
 C3596 C 0.94294 0.78878 0.72743
 C3597 C 0.95291 0.78396 0.73215
 C3598 C 0.95734 0.77351 0.72796
 C3599 C 0.95150 0.76792 0.71904
 C3600 C 0.94154 0.77273 0.71432
 H3601 H 0.89674 0.81808 0.70935
 H3602 H 0.87987 0.82667 0.70052
 H3603 H 0.87842 0.79846 0.67647
 H3604 H 0.89534 0.78996 0.68525
 H3605 H 0.93982 0.79690 0.73078
 H3606 H 0.95728 0.78854 0.73894
 H3607 H 0.95459 0.75976 0.71574
 H3608 H 0.93730 0.76819 0.70742
 C3609 C 0.60253 0.30195 0.30291
 C3610 C 0.60716 0.29750 0.31308
 C3611 C 0.61690 0.30251 0.31804
 C3612 C 0.62228 0.31209 0.31296
 C3613 C 0.61762 0.31654 0.30279
 C3614 C 0.60788 0.31153 0.29783
 C3615 C 0.59219 0.29664 0.29765
 N3616 N 0.58784 0.30077 0.28770
 N3617 N 0.57852 0.29603 0.28300
 C3618 C 0.57316 0.28696 0.28804
 N3619 N 0.57752 0.28281 0.29799
 N3620 N 0.58684 0.28754 0.30269
 C3621 C 0.56271 0.28177 0.28286
 C3622 C 0.55691 0.27264 0.28830
 C3623 C 0.54695 0.26792 0.28349
 C3624 C 0.54255 0.27220 0.27315
 C3625 C 0.54842 0.28124 0.26766
 C3626 C 0.55837 0.28597 0.27246
 H3627 H 0.60327 0.29013 0.31724
 H3628 H 0.62017 0.29880 0.32587
 H3629 H 0.62145 0.32390 0.29858
 H3630 H 0.60455 0.31520 0.28999
 H3631 H 0.56000 0.26921 0.29633
 H3632 H 0.54255 0.26105 0.28800
 H3633 H 0.54535 0.28462 0.25959
 H3634 H 0.56264 0.29295 0.26800
 C3635 C 0.60251 0.80185 0.80311
 C3636 C 0.60704 0.79753 0.81338
 C3637 C 0.61674 0.80257 0.81837
 C3638 C 0.62218 0.81209 0.81322
 C3639 C 0.61764 0.81641 0.80294
 C3640 C 0.60793 0.81136 0.79795
 C3641 C 0.59218 0.79651 0.79784
 N3642 N 0.58786 0.80058 0.78785
 N3643 N 0.57855 0.79583 0.78315
 C3644 C 0.57316 0.78679 0.78825
 N3645 N 0.57748 0.78271 0.79824
 N3646 N 0.58680 0.78746 0.80293
 C3647 C 0.56270 0.78160 0.78308
 C3648 C 0.55691 0.77249 0.78855
 C3649 C 0.54692 0.76776 0.78379
 C3650 C 0.54250 0.77203 0.77345
 C3651 C 0.54837 0.78105 0.76792
 C3652 C 0.55834 0.78578 0.77268
 H3653 H 0.60308 0.79022 0.81760
 H3654 H 0.61990 0.79899 0.82629
 H3655 H 0.62155 0.82369 0.79867
 H3656 H 0.60468 0.81493 0.79004
 H3657 H 0.56001 0.76906 0.79658
 H3658 H 0.54253 0.76091 0.78832
 H3659 H 0.54528 0.78441 0.75985
 H3660 H 0.56261 0.79274 0.76820
 C3661 C 0.10188 0.30200 0.80410
 C3662 C 0.10751 0.31127 0.79875
 C3663 C 0.11731 0.31621 0.80364
 C3664 C 0.12176 0.31201 0.81401
 C3665 C 0.11607 0.30278 0.81939
 C3666 C 0.10626 0.29784 0.81450
 C3667 C 0.09155 0.29667 0.79881
 N3668 N 0.08603 0.28774 0.80396
 N3669 N 0.07677 0.28295 0.79918
 C3670 C 0.07265 0.28689 0.78905
 N3671 N 0.07817 0.29581 0.78391
 N3672 N 0.08742 0.30060 0.78868
 C3673 C 0.06229 0.28164 0.78376
 C3674 C 0.05810 0.28574 0.77325
 C3675 C 0.04821 0.28099 0.76836
 C3676 C 0.04224 0.27202 0.77386
 C3677 C 0.04649 0.26781 0.78429
 C3678 C 0.05640 0.27257 0.78919
 H3679 H 0.10438 0.31471 0.79074
 H3680 H 0.12144 0.32325 0.79918
 H3681 H 0.11915 0.29934 0.82741
 H3682 H 0.10213 0.29073 0.81887
 H3683 H 0.06245 0.29267 0.76878
 H3684 H 0.04525 0.28429 0.76022
 H3685 H 0.04202 0.26099 0.78879
 H3686 H 0.05938 0.26919 0.79729
 C3687 C 0.10234 0.80233 0.30340
 C3688 C 0.10770 0.81188 0.29829
 C3689 C 0.11739 0.81696 0.30328
 C3690 C 0.12197 0.81261 0.31353
 C3691 C 0.11658 0.80304 0.31864
 C3692 C 0.10690 0.79797 0.31365
 C3693 C 0.09204 0.79695 0.29811
 N3694 N 0.08669 0.78786 0.30316
 N3695 N 0.07741 0.78308 0.29843
 C3696 C 0.07307 0.78719 0.28845
 N3697 N 0.07843 0.79627 0.28340
 N3698 N 0.08771 0.80105 0.28813
 C3699 C 0.06265 0.78197 0.28325
 C3700 C 0.05830 0.78619 0.27286
 C3701 C 0.04835 0.78146 0.26806
 C3702 C 0.04249 0.77240 0.27354
 C3703 C 0.04691 0.76809 0.28387
 C3704 C 0.05687 0.77282 0.28867
 H3705 H 0.10442 0.81548 0.29040
 H3706 H 0.12125 0.82428 0.29904
 H3707 H 0.11978 0.79942 0.32653
 H3708 H 0.10299 0.79063 0.31784
 H3709 H 0.06255 0.79318 0.26841
 H3710 H 0.04526 0.78484 0.26001
 H3711 H 0.04252 0.76121 0.28836
 H3712 H 0.05997 0.76937 0.29670
 C3713 C 0.60250 0.69779 0.69618
 C3714 C 0.60792 0.68823 0.70126
 C3715 C 0.61764 0.68322 0.69625
 C3716 C 0.62222 0.68764 0.68603
 C3717 C 0.61678 0.69720 0.68096
 C3718 C 0.60705 0.70221 0.68596
 C3719 C 0.59217 0.70309 0.70149
 N3720 N 0.58675 0.71216 0.69647
 N3721 N 0.57744 0.71687 0.70121
 C3722 C 0.57314 0.71272 0.71118
 N3723 N 0.57857 0.70366 0.71621
 N3724 N 0.58788 0.69895 0.71146
 C3725 C 0.56270 0.71787 0.71642
 C3726 C 0.55840 0.71362 0.72682
 C3727 C 0.54844 0.71830 0.73165
 C3728 C 0.54251 0.72733 0.72621
 C3729 C 0.54686 0.73166 0.71587
 C3730 C 0.55683 0.72699 0.71102
 H3731 H 0.60465 0.68458 0.70912
 H3732 H 0.62153 0.67589 0.70047
 H3733 H 0.61997 0.70088 0.67309
 H3734 H 0.60311 0.70956 0.68180
 H3735 H 0.56271 0.70665 0.73125
 H3736 H 0.54541 0.71488 0.73972
 H3737 H 0.54241 0.73853 0.71139
 H3738 H 0.55988 0.73047 0.70300
 C3739 C 0.60257 0.19772 0.19616
 C3740 C 0.60700 0.20199 0.18583
 C3741 C 0.61669 0.19693 0.18080
 C3742 C 0.62220 0.18747 0.18597
 C3743 C 0.61776 0.18320 0.19631
 C3744 C 0.60807 0.18826 0.20134
 C3745 C 0.59225 0.20305 0.20146
 N3746 N 0.58800 0.19900 0.21149
 N3747 N 0.57869 0.20373 0.21621
 C3748 C 0.57322 0.21273 0.21111
 N3749 N 0.57749 0.21680 0.20110
 N3750 N 0.58680 0.21207 0.19638
 C3751 C 0.56276 0.21789 0.21631
 C3752 C 0.55690 0.22698 0.21086
 C3753 C 0.54691 0.23166 0.21566
 C3754 C 0.54254 0.22736 0.22600
 C3755 C 0.54846 0.21836 0.23150
 C3756 C 0.55844 0.21368 0.22672
 H3757 H 0.60299 0.20925 0.18159
 H3758 H 0.61976 0.20046 0.17283
 H3759 H 0.62174 0.17598 0.20061
 H3760 H 0.60490 0.18474 0.20929
 H3761 H 0.55997 0.23043 0.20283
 H3762 H 0.54247 0.23850 0.21115
 H3763 H 0.54541 0.21498 0.23957
 H3764 H 0.56275 0.20672 0.23118
 C3765 C 0.10236 0.69833 0.19597
 C3766 C 0.10673 0.70251 0.18557
 C3767 C 0.11637 0.69740 0.18052
 C3768 C 0.12190 0.68797 0.18573
 C3769 C 0.11753 0.68381 0.19614
 C3770 C 0.10789 0.68892 0.20119
 C3771 C 0.09209 0.70370 0.20131
 N3772 N 0.08791 0.69969 0.21138
 N3773 N 0.07864 0.70443 0.21615
 C3774 C 0.07312 0.71340 0.21105
 N3775 N 0.07731 0.71743 0.20098
 N3776 N 0.08659 0.71268 0.19621
 C3777 C 0.06269 0.71856 0.21630
 C3778 C 0.05679 0.72764 0.21089
 C3779 C 0.04682 0.73231 0.21574
 C3780 C 0.04251 0.72799 0.22610
 C3781 C 0.04848 0.71900 0.23157
 C3782 C 0.05845 0.71434 0.22673
 H3783 H 0.10268 0.70974 0.18130
 H3784 H 0.11940 0.70085 0.17249
 H3785 H 0.12154 0.67662 0.20048
 H3786 H 0.10478 0.68546 0.20920
 H3787 H 0.05981 0.73109 0.20284
 H3788 H 0.04234 0.73914 0.21125
 H3789 H 0.04548 0.71561 0.23966
 H3790 H 0.06279 0.70740 0.23118
 C3791 C 0.10232 0.19736 0.69636
 C3792 C 0.10670 0.20158 0.68599
 C3793 C 0.11636 0.19650 0.68094
 C3794 C 0.12190 0.18705 0.68612
 C3795 C 0.11751 0.18285 0.69651
 C3796 C 0.10785 0.18794 0.70156
 C3797 C 0.09204 0.20273 0.70170
 N3798 N 0.08783 0.19871 0.71176
 N3799 N 0.07857 0.20349 0.71653
 C3800 C 0.07312 0.21251 0.71145
 N3801 N 0.07733 0.21653 0.70140
 N3802 N 0.08659 0.21176 0.69663
 C3803 C 0.06271 0.21772 0.71670
 C3804 C 0.05687 0.22685 0.71129
 C3805 C 0.04690 0.23155 0.71612
 C3806 C 0.04253 0.22723 0.72646
 C3807 C 0.04845 0.21822 0.73194
 C3808 C 0.05842 0.21352 0.72712
 H3809 H 0.10267 0.20883 0.68174
 H3810 H 0.11940 0.19999 0.67294
 H3811 H 0.12153 0.17565 0.70083
 H3812 H 0.10473 0.18446 0.70956
 H3813 H 0.05993 0.23031 0.70326
 H3814 H 0.04247 0.23841 0.71163
 H3815 H 0.04542 0.21483 0.74001
 H3816 H 0.06272 0.20655 0.73157
 C3817 C 0.39750 0.69687 0.30267
 C3818 C 0.39217 0.70219 0.31205
 C3819 C 0.38244 0.69728 0.31714
 C3820 C 0.37778 0.68691 0.31297
 C3821 C 0.38313 0.68159 0.30358
 C3822 C 0.39286 0.68650 0.29849
 C3823 C 0.40784 0.70206 0.29729
 N3824 N 0.41317 0.69681 0.28837
 N3825 N 0.42249 0.70145 0.28359
 C3826 C 0.42689 0.71155 0.28750
 N3827 N 0.42155 0.71681 0.29641
 N3828 N 0.41223 0.71217 0.30120
 C3829 C 0.43734 0.71668 0.28227
 C3830 C 0.44174 0.72722 0.28629
 C3831 C 0.45171 0.73196 0.28153
 C3832 C 0.45753 0.72629 0.27265
 C3833 C 0.45308 0.71581 0.26854
 C3834 C 0.44310 0.71106 0.27330
 H3835 H 0.39551 0.71018 0.31550
 H3836 H 0.37859 0.70169 0.32431
 H3837 H 0.37988 0.67360 0.30011
 H3838 H 0.39674 0.68215 0.29129
 H3839 H 0.43750 0.73183 0.29314
 H3840 H 0.45482 0.74014 0.28477
 H3841 H 0.45745 0.71117 0.26180
 H3842 H 0.43997 0.70292 0.27000
 C3843 C 0.39739 0.19610 0.80249
 C3844 C 0.39218 0.20140 0.81196
 C3845 C 0.38255 0.19646 0.81718
 C3846 C 0.37784 0.18609 0.81307
 C3847 C 0.38306 0.18079 0.80359
 C3848 C 0.39271 0.18573 0.79837
 C3849 C 0.40764 0.20135 0.79699
 N3850 N 0.41291 0.19613 0.78802
 N3851 N 0.42215 0.20083 0.78314
 C3852 C 0.42652 0.21097 0.78701
 N3853 N 0.42124 0.21620 0.79596
 N3854 N 0.41200 0.21150 0.80084
 C3855 C 0.43691 0.21615 0.78171
 C3856 C 0.44128 0.22672 0.78570
 C3857 C 0.45124 0.23147 0.78094
 C3858 C 0.45710 0.22578 0.77209
 C3859 C 0.45265 0.21531 0.76797
 C3860 C 0.44268 0.21055 0.77273
 H3861 H 0.39555 0.20939 0.81538
 H3862 H 0.37882 0.20085 0.82443
 H3863 H 0.37976 0.17280 0.80015
 H3864 H 0.39649 0.18141 0.79110
 H3865 H 0.43703 0.23133 0.79254
 H3866 H 0.45434 0.23965 0.78417
 H3867 H 0.45703 0.21067 0.76123
 H3868 H 0.43956 0.20240 0.76944
 C3869 C 0.89720 0.69645 0.80244
 C3870 C 0.89206 0.70162 0.81201
 C3871 C 0.88242 0.69663 0.81720
 C3872 C 0.87765 0.68634 0.81295
 C3873 C 0.88281 0.68118 0.80337
 C3874 C 0.89246 0.68616 0.79818
 C3875 C 0.90746 0.70172 0.79698
 N3876 N 0.91270 0.69657 0.78795
 N3877 N 0.92197 0.70127 0.78313
 C3878 C 0.92641 0.71133 0.78711
 N3879 N 0.92116 0.71649 0.79612
 N3880 N 0.91189 0.71179 0.80095
 C3881 C 0.93685 0.71648 0.78187
 C3882 C 0.94127 0.72700 0.78593
 C3883 C 0.95126 0.73173 0.78120
 C3884 C 0.95709 0.72607 0.77231
 C3885 C 0.95260 0.71564 0.76814
 C3886 C 0.94259 0.71090 0.77286
 H3887 H 0.89548 0.70953 0.81554
 H3888 H 0.87875 0.70091 0.82454
 H3889 H 0.87947 0.67326 0.79981
 H3890 H 0.89619 0.68194 0.79082
 H3891 H 0.93705 0.73158 0.79280
 H3892 H 0.95440 0.73987 0.78448
 H3893 H 0.95696 0.71101 0.76138
 H3894 H 0.93944 0.70278 0.76953
 C3895 C 0.89770 0.19727 0.30305
 C3896 C 0.89124 0.18891 0.29717
 C3897 C 0.88157 0.18385 0.30223
 C3898 C 0.87810 0.18705 0.31328
 C3899 C 0.88458 0.19539 0.31916
 C3900 C 0.89426 0.20043 0.31411
 C3901 C 0.90795 0.20266 0.29769
 N3902 N 0.91455 0.21027 0.30359
 N3903 N 0.92378 0.21509 0.29880
 C3904 C 0.92679 0.21253 0.28790
 N3905 N 0.92018 0.20494 0.28198
 N3906 N 0.91096 0.20010 0.28678
 C3907 C 0.93715 0.21781 0.28262
 C3908 C 0.93993 0.21562 0.27115
 C3909 C 0.94982 0.22042 0.26626
 C3910 C 0.95717 0.22749 0.27273
 C3911 C 0.95433 0.22976 0.28417
 C3912 C 0.94443 0.22499 0.28905
 H3913 H 0.89364 0.18626 0.28864
 H3914 H 0.87676 0.17752 0.29741
 H3915 H 0.88227 0.19801 0.32772
 H3916 H 0.89904 0.20681 0.31890
 H3917 H 0.93448 0.21019 0.26593
 H3918 H 0.95167 0.21864 0.25738
 H3919 H 0.95990 0.23504 0.28943
 H3920 H 0.94258 0.22684 0.29792
 C3921 C 0.30197 0.30358 0.60166
 C3922 C 0.29757 0.31386 0.60628
 C3923 C 0.30260 0.31880 0.61595
 C3924 C 0.31217 0.31360 0.62126
 C3925 C 0.31657 0.30333 0.61659
 C3926 C 0.31154 0.29839 0.60693
 C3927 C 0.29666 0.29834 0.59138
 N3928 N 0.30080 0.28832 0.58701
 N3929 N 0.29610 0.28365 0.57774
 C3930 C 0.28705 0.28879 0.57242
 N3931 N 0.28289 0.29880 0.57680
 N3932 N 0.28759 0.30348 0.58608
 C3933 C 0.28194 0.28365 0.56200
 C3934 C 0.27285 0.28917 0.55623
 C3935 C 0.26821 0.28441 0.54628
 C3936 C 0.27255 0.27401 0.54187
 C3937 C 0.28155 0.26843 0.54770
 C3938 C 0.28620 0.27319 0.55763
 H3939 H 0.29022 0.31811 0.60244
 H3940 H 0.29895 0.32672 0.61920
 H3941 H 0.32390 0.29902 0.62038
 H3942 H 0.31517 0.29048 0.60360
 H3943 H 0.26938 0.29725 0.55933
 H3944 H 0.26137 0.28899 0.54191
 H3945 H 0.28497 0.26032 0.54462
 H3946 H 0.29316 0.26866 0.56187
 C3947 C 0.30219 0.80393 0.10193
 C3948 C 0.29777 0.81419 0.10657
 C3949 C 0.30275 0.81908 0.11629
 C3950 C 0.31227 0.81385 0.12163
 C3951 C 0.31668 0.80358 0.11697
 C3952 C 0.31170 0.79869 0.10725
 C3953 C 0.29694 0.79873 0.09160
 N3954 N 0.30110 0.78872 0.08722
 N3955 N 0.29643 0.78407 0.07792
 C3956 C 0.28739 0.78923 0.07258
 N3957 N 0.28322 0.79923 0.07697
 N3958 N 0.28789 0.80388 0.08628
 C3959 C 0.28230 0.78410 0.06214
 C3960 C 0.27321 0.78963 0.05638
 C3961 C 0.26860 0.78490 0.04639
 C3962 C 0.27299 0.77453 0.04194
 C3963 C 0.28198 0.76894 0.04778
 C3964 C 0.28658 0.77366 0.05775
 H3965 H 0.29046 0.81847 0.10270
 H3966 H 0.29909 0.82700 0.11955
 H3967 H 0.32396 0.79924 0.12080
 H3968 H 0.31534 0.79078 0.10392
 H3969 H 0.26970 0.79768 0.05951
 H3970 H 0.26176 0.78948 0.04203
 H3971 H 0.28541 0.76084 0.04467
 H3972 H 0.29353 0.76912 0.06199
 C3973 C 0.80234 0.30417 0.10125
 C3974 C 0.79794 0.31443 0.10591
 C3975 C 0.80297 0.31934 0.11560
 C3976 C 0.81254 0.31412 0.12088
 C3977 C 0.81693 0.30386 0.11619
 C3978 C 0.81190 0.29895 0.10651
 C3979 C 0.79699 0.29894 0.09099
 N3980 N 0.80109 0.28889 0.08664
 N3981 N 0.79633 0.28420 0.07740
 C3982 C 0.78727 0.28935 0.07211
 N3983 N 0.78316 0.29940 0.07647
 N3984 N 0.78792 0.30409 0.08571
 C3985 C 0.78208 0.28418 0.06173
 C3986 C 0.77300 0.28974 0.05598
 C3987 C 0.76832 0.28497 0.04605
 C3988 C 0.77261 0.27455 0.04165
 C3989 C 0.78158 0.26893 0.04748
 C3990 C 0.78626 0.27368 0.05740
 H3991 H 0.79059 0.31869 0.10209
 H3992 H 0.79931 0.32724 0.11888
 H3993 H 0.82426 0.29953 0.11996
 H3994 H 0.81553 0.29105 0.10315
 H3995 H 0.76957 0.29784 0.05907
 H3996 H 0.76150 0.28958 0.04168
 H3997 H 0.78495 0.26079 0.04441
 H3998 H 0.79320 0.26912 0.06164
 C3999 C 0.80247 0.80415 0.60167
 C4000 C 0.79799 0.81434 0.60638
 C4001 C 0.80301 0.81927 0.61607
 C4002 C 0.81266 0.81413 0.62129
 C4003 C 0.81713 0.80393 0.61656
 C4004 C 0.81210 0.79900 0.60688
 C4005 C 0.79716 0.79893 0.59138
 N4006 N 0.80132 0.78893 0.58696
 N4007 N 0.79659 0.78427 0.57769
 C4008 C 0.78750 0.78940 0.57243
 N4009 N 0.78332 0.79939 0.57685
 N4010 N 0.78805 0.80405 0.58613
 C4011 C 0.78235 0.78428 0.56201
 C4012 C 0.77325 0.78984 0.55627
 C4013 C 0.76859 0.78512 0.54631
 C4014 C 0.77292 0.77473 0.54185
 C4015 C 0.78191 0.76911 0.54766
 C4016 C 0.78657 0.77382 0.55761
 H4017 H 0.79058 0.81855 0.60261
 H4018 H 0.79928 0.82712 0.61939
 H4019 H 0.82451 0.79966 0.62029
 H4020 H 0.81579 0.79114 0.60348
 H4021 H 0.76979 0.79790 0.55941
 H4022 H 0.76176 0.78973 0.54197
 H4023 H 0.78530 0.76100 0.54454
 H4024 H 0.79351 0.76926 0.56183
 C4025 C 0.30197 0.69642 0.39849
 C4026 C 0.29758 0.68615 0.39386
 C4027 C 0.30261 0.68120 0.38420
 C4028 C 0.31218 0.68639 0.37890
 C4029 C 0.31659 0.69665 0.38358
 C4030 C 0.31155 0.70160 0.39324
 C4031 C 0.29663 0.70169 0.40874
 N4032 N 0.30076 0.71173 0.41309
 N4033 N 0.29602 0.71645 0.42232
 C4034 C 0.28695 0.71134 0.42762
 N4035 N 0.28280 0.70131 0.42326
 N4036 N 0.28754 0.69659 0.41402
 C4037 C 0.28180 0.71653 0.43800
 C4038 C 0.27268 0.71103 0.44375
 C4039 C 0.26803 0.71582 0.45369
 C4040 C 0.27239 0.72621 0.45810
 C4041 C 0.28140 0.73177 0.45227
 C4042 C 0.28605 0.72699 0.44235
 H4043 H 0.29022 0.68191 0.39769
 H4044 H 0.29896 0.67329 0.38094
 H4045 H 0.32392 0.70095 0.37981
 H4046 H 0.31519 0.70950 0.39658
 H4047 H 0.26920 0.70296 0.44065
 H4048 H 0.26118 0.71127 0.45805
 H4049 H 0.28483 0.73988 0.45535
 H4050 H 0.29302 0.73150 0.43812
 C4051 C 0.30254 0.19734 0.89853
 C4052 C 0.31398 0.19976 0.89541
 C4053 C 0.31885 0.19472 0.88571
 C4054 C 0.31241 0.18709 0.87892
 C4055 C 0.30097 0.18464 0.88206
 C4056 C 0.29609 0.18972 0.89173
 C4057 C 0.29736 0.20270 0.90881
 N4058 N 0.28607 0.20104 0.91139
 N4059 N 0.28143 0.20582 0.92064
 C4060 C 0.28788 0.21246 0.92773
 N4061 N 0.29918 0.21412 0.92515
 N4062 N 0.30381 0.20936 0.91589
 C4063 C 0.28275 0.21767 0.93810
 C4064 C 0.28966 0.22372 0.94592
 C4065 C 0.28485 0.22844 0.95581
 C4066 C 0.27302 0.22723 0.95811
 C4067 C 0.26609 0.22129 0.95023
 C4068 C 0.27089 0.21656 0.94035
 H4069 H 0.31921 0.20558 0.90045
 H4070 H 0.32771 0.19673 0.88363
 H4071 H 0.29572 0.17889 0.87699
 H4072 H 0.28725 0.18765 0.89387
 H4073 H 0.29882 0.22472 0.94449
 H4074 H 0.29046 0.23283 0.96178
 H4075 H 0.25692 0.22037 0.95165
 H4076 H 0.26530 0.21201 0.93448
 C4077 C 0.80191 0.69666 0.89845
 C4078 C 0.79744 0.68643 0.89381
 C4079 C 0.80243 0.68147 0.88413
 C4080 C 0.81203 0.68660 0.87883
 C4081 C 0.81649 0.69684 0.88350
 C4082 C 0.81150 0.70180 0.89317
 C4083 C 0.79664 0.70192 0.90874
 N4084 N 0.80083 0.71192 0.91311
 N4085 N 0.79614 0.71662 0.92238
 C4086 C 0.78706 0.71152 0.92769
 N4087 N 0.78287 0.70153 0.92331
 N4088 N 0.78755 0.69683 0.91403
 C4089 C 0.78194 0.71670 0.93809
 C4090 C 0.77284 0.71120 0.94385
 C4091 C 0.76820 0.71598 0.95379
 C4092 C 0.77256 0.72636 0.95821
 C4093 C 0.78157 0.73193 0.95238
 C4094 C 0.78621 0.72715 0.94245
 H4095 H 0.79006 0.68223 0.89764
 H4096 H 0.79871 0.67359 0.88087
 H4097 H 0.82384 0.70110 0.87971
 H4098 H 0.81519 0.70968 0.89651
 H4099 H 0.76934 0.70314 0.94074
 H4100 H 0.76135 0.71142 0.95815
 H4101 H 0.78499 0.74003 0.95546
 H4102 H 0.79317 0.73167 0.93821
 C4103 C 0.80195 0.19693 0.39838
 C4104 C 0.79753 0.18671 0.39367
 C4105 C 0.80258 0.18179 0.38401
 C4106 C 0.81220 0.18696 0.37879
 C4107 C 0.81662 0.19719 0.38352
 C4108 C 0.81156 0.20211 0.39318
 C4109 C 0.79660 0.20214 0.40865
 N4110 N 0.80072 0.21215 0.41306
 N4111 N 0.79597 0.21681 0.42231
 C4112 C 0.78688 0.21167 0.42756
 N4113 N 0.78274 0.20167 0.42314
 N4114 N 0.78750 0.19701 0.41388
 C4115 C 0.78171 0.21680 0.43796
 C4116 C 0.77260 0.21126 0.44367
 C4117 C 0.76793 0.21599 0.45362
 C4118 C 0.77226 0.22637 0.45808
 C4119 C 0.78127 0.23197 0.45229
 C4120 C 0.78594 0.22725 0.44236
 H4121 H 0.79014 0.18248 0.39745
 H4122 H 0.79890 0.17391 0.38070
 H4123 H 0.82398 0.20148 0.37979
 H4124 H 0.81521 0.20999 0.39657
 H4125 H 0.76913 0.20320 0.44053
 H4126 H 0.76108 0.21141 0.45795
 H4127 H 0.78467 0.24008 0.45541
 H4128 H 0.79290 0.23179 0.43815
 C4129 C 0.69772 0.30342 0.39868
 C4130 C 0.68808 0.29827 0.39350
 C4131 C 0.68302 0.30321 0.38384
 C4132 C 0.68746 0.31343 0.37909
 C4133 C 0.69710 0.31858 0.38430
 C4134 C 0.70215 0.31364 0.39396
 C4135 C 0.70308 0.29817 0.40893
 N4136 N 0.71220 0.30329 0.41416
 N4137 N 0.71698 0.29859 0.42340
 C4138 C 0.71286 0.28857 0.42781
 N4139 N 0.70376 0.28344 0.42257
 N4140 N 0.69897 0.28814 0.41334
 C4141 C 0.71808 0.28339 0.43817
 C4142 C 0.71392 0.27290 0.44254
 C4143 C 0.71866 0.26813 0.45244
 C4144 C 0.72767 0.27374 0.45821
 C4145 C 0.73193 0.28416 0.45378
 C4146 C 0.72719 0.28894 0.44388
 H4147 H 0.68441 0.29040 0.39691
 H4148 H 0.67563 0.29894 0.38014
 H4149 H 0.70080 0.32644 0.38096
 H4150 H 0.70957 0.31785 0.39772
 H4151 H 0.70696 0.26835 0.43834
 H4152 H 0.71531 0.25999 0.45553
 H4153 H 0.73878 0.28876 0.45810
 H4154 H 0.73060 0.29704 0.44076
 C4155 C 0.69793 0.80326 0.89878
 C4156 C 0.68829 0.79811 0.89363
 C4157 C 0.68320 0.80303 0.88397
 C4158 C 0.68762 0.81325 0.87920
 C4159 C 0.69727 0.81840 0.88438
 C4160 C 0.70236 0.81348 0.89404
 C4161 C 0.70332 0.79803 0.90904
 N4162 N 0.71245 0.80316 0.91423
 N4163 N 0.71725 0.79849 0.92347
 C4164 C 0.71314 0.78847 0.92791
 N4165 N 0.70403 0.78333 0.92270
 N4166 N 0.69923 0.78801 0.91347
 C4167 C 0.71838 0.78332 0.93828
 C4168 C 0.71424 0.77283 0.94268
 C4169 C 0.71899 0.76809 0.95258
 C4170 C 0.72800 0.77372 0.95834
 C4171 C 0.73224 0.78414 0.95388
 C4172 C 0.72749 0.78889 0.94396
 H4173 H 0.68463 0.79024 0.89705
 H4174 H 0.67581 0.79876 0.88029
 H4175 H 0.70097 0.82626 0.88103
 H4176 H 0.70977 0.81769 0.89778
 H4177 H 0.70728 0.76826 0.93850
 H4178 H 0.71565 0.75996 0.95570
 H4179 H 0.73909 0.78876 0.95819
 H4180 H 0.73089 0.79699 0.94083
 C4181 C 0.19717 0.30251 0.89889
 C4182 C 0.18646 0.29865 0.89478
 C4183 C 0.18158 0.30357 0.88501
 C4184 C 0.18726 0.31249 0.87914
 C4185 C 0.19791 0.31642 0.88333
 C4186 C 0.20282 0.31147 0.89306
 C4187 C 0.20243 0.29719 0.90917
 N4188 N 0.21323 0.30014 0.91256
 N4189 N 0.21796 0.29535 0.92177
 C4190 C 0.21209 0.28741 0.92801
 N4191 N 0.20129 0.28446 0.92463
 N4192 N 0.19656 0.28923 0.91540
 C4193 C 0.21732 0.28216 0.93834
 C4194 C 0.21081 0.27488 0.94545
 C4195 C 0.21566 0.27012 0.95530
 C4196 C 0.22715 0.27250 0.95827
 C4197 C 0.23371 0.27968 0.95110
 C4198 C 0.22884 0.28447 0.94127
 H4199 H 0.18185 0.29179 0.89906
 H4200 H 0.17331 0.30039 0.88212
 H4201 H 0.20258 0.32321 0.87901
 H4202 H 0.21106 0.31468 0.89600
 H4203 H 0.20189 0.27295 0.94348
 H4204 H 0.21033 0.26476 0.96072
 H4205 H 0.24264 0.28153 0.95305
 H4206 H 0.23414 0.28997 0.93596
 C4207 C 0.19809 0.80345 0.39867
 C4208 C 0.18851 0.79824 0.39345
 C4209 C 0.18346 0.80314 0.38377
 C4210 C 0.18787 0.81338 0.37902
 C4211 C 0.19745 0.81859 0.38427
 C4212 C 0.20249 0.81369 0.39396
 C4213 C 0.20345 0.79822 0.40893
 N4214 N 0.21255 0.80335 0.41416
 N4215 N 0.21734 0.79867 0.42340
 C4216 C 0.21323 0.78864 0.42781
 N4217 N 0.20414 0.78350 0.42257
 N4218 N 0.19935 0.78819 0.41334
 C4219 C 0.21846 0.78346 0.43817
 C4220 C 0.21428 0.77297 0.44255
 C4221 C 0.21903 0.76820 0.45243
 C4222 C 0.22806 0.77379 0.45819
 C4223 C 0.23234 0.78421 0.45375
 C4224 C 0.22759 0.78899 0.44386
 H4225 H 0.18487 0.79035 0.39685
 H4226 H 0.17613 0.79882 0.38002
 H4227 H 0.20110 0.82648 0.38096
 H4228 H 0.20985 0.81794 0.39776
 H4229 H 0.20731 0.76844 0.43836
 H4230 H 0.21567 0.76007 0.45553
 H4231 H 0.23920 0.78878 0.45807
 H4232 H 0.23101 0.79709 0.44073
 C4233 C 0.69834 0.69738 0.60095
 C4234 C 0.70272 0.68709 0.60558
 C4235 C 0.69764 0.68211 0.61521
 C4236 C 0.68804 0.68727 0.62045
 C4237 C 0.68365 0.69755 0.61579
 C4238 C 0.68873 0.70254 0.60617
 C4239 C 0.70371 0.70267 0.59072
 N4240 N 0.69959 0.71271 0.58636
 N4241 N 0.70437 0.71745 0.57715
 C4242 C 0.71348 0.71235 0.57190
 N4243 N 0.71761 0.70231 0.57627
 N4244 N 0.71283 0.69758 0.58549
 C4245 C 0.71870 0.71757 0.56156
 C4246 C 0.72784 0.71208 0.55586
 C4247 C 0.73257 0.71690 0.54597
 C4248 C 0.72827 0.72732 0.54156
 C4249 C 0.71922 0.73287 0.54733
 C4250 C 0.71448 0.72806 0.55720
 H4251 H 0.71011 0.68287 0.60178
 H4252 H 0.70129 0.67419 0.61847
 H4253 H 0.67630 0.70184 0.61954
 H4254 H 0.68511 0.71046 0.60283
 H4255 H 0.73130 0.70398 0.55896
 H4256 H 0.73946 0.71235 0.54165
 H4257 H 0.71583 0.74100 0.54425
 H4258 H 0.70749 0.73256 0.56139
 C4259 C 0.69840 0.19725 0.10104
 C4260 C 0.70282 0.18700 0.10570
 C4261 C 0.69776 0.18202 0.11534
 C4262 C 0.68813 0.18716 0.12057
 C4263 C 0.68371 0.19742 0.11588
 C4264 C 0.68878 0.20240 0.10625
 C4265 C 0.70376 0.20254 0.09081
 N4266 N 0.69961 0.21257 0.08643
 N4267 N 0.70438 0.21730 0.07721
 C4268 C 0.71350 0.21221 0.07197
 N4269 N 0.71765 0.20219 0.07635
 N4270 N 0.71289 0.19746 0.08558
 C4271 C 0.71869 0.21742 0.06161
 C4272 C 0.72784 0.21193 0.05591
 C4273 C 0.73253 0.21673 0.04600
 C4274 C 0.72819 0.22712 0.04156
 C4275 C 0.71914 0.23267 0.04733
 C4276 C 0.71444 0.22788 0.05723
 H4277 H 0.71022 0.18279 0.10191
 H4278 H 0.70144 0.17412 0.11862
 H4279 H 0.67634 0.20169 0.11962
 H4280 H 0.68512 0.21029 0.10289
 H4281 H 0.73132 0.20386 0.05904
 H4282 H 0.73941 0.21218 0.04168
 H4283 H 0.71573 0.24079 0.04423
 H4284 H 0.70745 0.23239 0.06142
 C4285 C 0.19852 0.69728 0.10117
 C4286 C 0.20286 0.68699 0.10583
 C4287 C 0.19775 0.68202 0.11545
 C4288 C 0.18815 0.68722 0.12067
 C4289 C 0.18381 0.69752 0.11599
 C4290 C 0.18892 0.70248 0.10637
 C4291 C 0.20393 0.70256 0.09096
 N4292 N 0.19985 0.71261 0.08658
 N4293 N 0.20466 0.71733 0.07738
 C4294 C 0.21377 0.71220 0.07215
 N4295 N 0.21786 0.70215 0.07654
 N4296 N 0.21305 0.69744 0.08575
 C4297 C 0.21902 0.71740 0.06182
 C4298 C 0.22817 0.71189 0.05615
 C4299 C 0.23292 0.71668 0.04626
 C4300 C 0.22862 0.72709 0.04181
 C4301 C 0.21957 0.73266 0.04755
 C4302 C 0.21482 0.72788 0.05743
 H4303 H 0.21024 0.68273 0.10204
 H4304 H 0.20136 0.67409 0.11873
 H4305 H 0.17646 0.70184 0.11972
 H4306 H 0.18533 0.71041 0.10302
 H4307 H 0.23162 0.70380 0.05928
 H4308 H 0.23981 0.71211 0.04196
 H4309 H 0.21618 0.74078 0.04443
 H4310 H 0.20782 0.73240 0.06159
 C4311 C 0.19818 0.19688 0.60126
 C4312 C 0.20258 0.18662 0.60592
 C4313 C 0.19751 0.18164 0.61555
 C4314 C 0.18790 0.18681 0.62079
 C4315 C 0.18349 0.19707 0.61610
 C4316 C 0.18857 0.20204 0.60647
 C4317 C 0.20352 0.20213 0.59100
 N4318 N 0.19941 0.21216 0.58660
 N4319 N 0.20414 0.21683 0.57734
 C4320 C 0.21319 0.21167 0.57205
 N4321 N 0.21733 0.20165 0.57646
 N4322 N 0.21260 0.19699 0.58573
 C4323 C 0.21836 0.21682 0.56165
 C4324 C 0.22745 0.21127 0.55592
 C4325 C 0.23219 0.21607 0.54603
 C4326 C 0.22795 0.22652 0.54164
 C4327 C 0.21892 0.23211 0.54741
 C4328 C 0.21418 0.22732 0.55729
 H4329 H 0.20997 0.18239 0.60213
 H4330 H 0.20117 0.17373 0.61882
 H4331 H 0.17613 0.20135 0.61984
 H4332 H 0.18493 0.20995 0.60311
 H4333 H 0.23085 0.20315 0.55901
 H4334 H 0.23904 0.21148 0.54169
 H4335 H 0.21557 0.24026 0.54433
 H4336 H 0.20722 0.23186 0.56149
   
