data_POSCAR
  _audit_creation_date              2014-09-24
  _audit_creation_method            'ToBaCCo'
  _symmetry_space_group_name_H-M    'P1'
  _symmetry_Int_Tables_number       1
  _symmetry_cell_setting            triclinic
  loop_
  _symmetry_equiv_pos_as_xyz
 x,y,z
_cell_length_a 79.1487
_cell_length_b 79.4011
_cell_length_c 79.6245
_cell_angle_alpha 89.996500
_cell_angle_beta 90.051800
_cell_angle_gamma 89.988700
loop_
  _atom_site_label
  _atom_site_type_symbol
  _atom_site_fract_x
  _atom_site_fract_y
  _atom_site_fract_z
N1 N 0.17377 0.21448 0.21759
 N2 N 0.17632 0.19966 0.22454
 C3 C 0.16502 0.19738 0.23697
 C4 C 0.15500 0.21159 0.23797
 C5 C 0.16089 0.22221 0.22552
 H6 H 0.16430 0.18635 0.24491
 H7 H 0.15600 0.23455 0.22235
 Cu8 Cu 0.19476 0.18543 0.21693
 Cu9 Cu 0.18696 0.22235 0.19831
 Cu10 Cu 0.22049 0.19688 0.18582
 N11 N 0.21445 0.17195 0.21138
 N12 N 0.22456 0.17659 0.19912
 C13 C 0.23761 0.16574 0.19821
 C14 C 0.23556 0.15372 0.21059
 C15 C 0.22074 0.15800 0.21870
 H16 H 0.24801 0.16670 0.18944
 H17 H 0.21521 0.15167 0.22939
 N18 N 0.21426 0.21792 0.17414
 N19 N 0.20177 0.22782 0.17904
 C20 C 0.20090 0.24116 0.16857
 C21 C 0.21335 0.23946 0.15653
 C22 C 0.22155 0.22464 0.16042
 H23 H 0.19177 0.25126 0.16944
 H24 H 0.23207 0.21919 0.15368
 H25 H 0.19469 0.19904 0.18962
 H26 H 0.20883 0.20989 0.20494
 N27 N 0.67332 0.71424 0.71613
 N28 N 0.67770 0.70118 0.72530
 C29 C 0.66688 0.69975 0.73831
 C30 C 0.65516 0.71261 0.73714
 C31 C 0.65959 0.72154 0.72292
 H32 H 0.66751 0.69019 0.74794
 H33 H 0.65339 0.73266 0.71804
 Cu34 Cu 0.69721 0.68755 0.71925
 Cu35 Cu 0.68609 0.72125 0.69638
 Cu36 Cu 0.72099 0.69702 0.68571
 N37 N 0.71673 0.67393 0.71320
 N38 N 0.72610 0.67781 0.70014
 C39 C 0.73902 0.66683 0.69903
 C40 C 0.73757 0.65540 0.71204
 C41 C 0.72328 0.66022 0.72076
 H42 H 0.74878 0.66712 0.68953
 H43 H 0.71825 0.65433 0.73192
 N44 N 0.71376 0.71694 0.67271
 N45 N 0.70060 0.72629 0.67687
 C46 C 0.69931 0.73920 0.66594
 C47 C 0.71220 0.73782 0.65435
 C48 C 0.72108 0.72359 0.65896
 H49 H 0.68977 0.74895 0.66637
 H50 H 0.73220 0.71862 0.65283
 H51 H 0.69538 0.69770 0.69046
 H52 H 0.70905 0.71131 0.70389
 N53 N 0.32648 0.78637 0.71601
 N54 N 0.32239 0.79969 0.72494
 C55 C 0.33325 0.80111 0.73792
 C56 C 0.34473 0.78803 0.73698
 C57 C 0.34008 0.77893 0.72294
 H58 H 0.33285 0.81087 0.74737
 H59 H 0.34608 0.76764 0.71823
 Cu60 Cu 0.30327 0.81384 0.71876
 Cu61 Cu 0.31356 0.77928 0.69645
 Cu62 Cu 0.27861 0.80332 0.68584
 N63 N 0.28331 0.82685 0.71281
 N64 N 0.27359 0.82259 0.70009
 C65 C 0.26048 0.83339 0.69915
 C66 C 0.26217 0.84508 0.71192
 C67 C 0.27680 0.84060 0.72030
 H68 H 0.25050 0.83282 0.68988
 H69 H 0.28215 0.84678 0.73116
 N70 N 0.28573 0.78335 0.67297
 N71 N 0.29893 0.77407 0.67712
 C72 C 0.30019 0.76109 0.66627
 C73 C 0.28723 0.76237 0.65473
 C74 C 0.27832 0.77659 0.65930
 H75 H 0.30979 0.75141 0.66671
 H76 H 0.26716 0.78150 0.65319
 H77 H 0.30444 0.80289 0.69011
 H78 H 0.29100 0.78972 0.70424
 N79 N 0.82757 0.28571 0.21586
 N80 N 0.82320 0.29865 0.22522
 C81 C 0.83408 0.29993 0.23821
 C82 C 0.84590 0.28715 0.23679
 C83 C 0.84142 0.27841 0.22244
 H84 H 0.83348 0.30936 0.24799
 H85 H 0.84763 0.26741 0.21734
 Cu86 Cu 0.80352 0.31223 0.21943
 Cu87 Cu 0.81463 0.27875 0.19621
 Cu88 Cu 0.77957 0.30288 0.18587
 N89 N 0.78393 0.32584 0.21348
 N90 N 0.77452 0.32198 0.20041
 C91 C 0.76162 0.33299 0.19932
 C92 C 0.76307 0.34436 0.21237
 C93 C 0.77737 0.33951 0.22109
 H94 H 0.75189 0.33277 0.18976
 H95 H 0.78246 0.34544 0.23222
 N96 N 0.78675 0.28305 0.17278
 N97 N 0.79996 0.27372 0.17683
 C98 C 0.80121 0.26087 0.16584
 C99 C 0.78823 0.26227 0.15432
 C100 C 0.77935 0.27646 0.15904
 H101 H 0.81081 0.25118 0.16614
 H102 H 0.76819 0.28144 0.15297
 H103 H 0.80522 0.30235 0.19052
 H104 H 0.79167 0.28856 0.20389
 N105 N 0.82692 0.71392 0.28368
 N106 N 0.82259 0.70083 0.27451
 C107 C 0.83341 0.69944 0.26151
 C108 C 0.84512 0.71230 0.26269
 C109 C 0.84067 0.72122 0.27692
 H110 H 0.83284 0.68986 0.25190
 H111 H 0.84689 0.73231 0.28183
 Cu112 Cu 0.80308 0.68709 0.28039
 Cu113 Cu 0.81403 0.72098 0.30330
 Cu114 Cu 0.77909 0.69688 0.31388
 N115 N 0.78351 0.67361 0.28659
 N116 N 0.77406 0.67760 0.29957
 C117 C 0.76110 0.66663 0.30067
 C118 C 0.76259 0.65516 0.28771
 C119 C 0.77695 0.65990 0.27905
 H120 H 0.75131 0.66696 0.31015
 H121 H 0.78206 0.65390 0.26799
 N122 N 0.78621 0.71686 0.32677
 N123 N 0.79943 0.72614 0.32266
 C124 C 0.80072 0.73906 0.33358
 C125 C 0.78774 0.73777 0.34509
 C126 C 0.77883 0.72357 0.34045
 H127 H 0.81036 0.74870 0.33324
 H128 H 0.76768 0.71863 0.34655
 H129 H 0.80479 0.69734 0.30924
 H130 H 0.79120 0.71092 0.29565
 N131 N 0.32729 0.21418 -0.21660
 N132 N 0.32291 0.20117 -0.22585
 C133 C 0.33373 0.19979 -0.23887
 C134 C 0.34564 0.21248 -0.23748
 C135 C 0.34117 0.22135 -0.22321
 H136 H 0.33317 0.19021 -0.24853
 H137 H 0.34730 0.23244 -0.21826
 Cu138 Cu 0.30341 0.18754 -0.21976
 Cu139 Cu 0.31442 0.22125 -0.19694
 Cu140 Cu 0.27941 0.19717 -0.18645
 N141 N 0.28383 0.17395 -0.21385
 N142 N 0.27437 0.17793 -0.20086
 C143 C 0.26155 0.16685 -0.19969
 C144 C 0.26308 0.15534 -0.21261
 C145 C 0.27731 0.16021 -0.22139
 H146 H 0.25168 0.16729 -0.19033
 H147 H 0.28247 0.15414 -0.23242
 N148 N 0.28656 0.21711 -0.17352
 N149 N 0.29978 0.22639 -0.17760
 C150 C 0.30099 0.23936 -0.16673
 C151 C 0.28799 0.23807 -0.15525
 C152 C 0.27910 0.22386 -0.15989
 H153 H 0.31055 0.24908 -0.16714
 H154 H 0.26788 0.21897 -0.15388
 H155 H 0.30513 0.19762 -0.19112
 H156 H 0.29153 0.21133 -0.20466
 N157 N 0.67299 0.28575 -0.21671
 N158 N 0.67716 0.29896 -0.22576
 C159 C 0.66637 0.30028 -0.23882
 C160 C 0.65478 0.28728 -0.23774
 C161 C 0.65935 0.27831 -0.22356
 H162 H 0.66688 0.30994 -0.24838
 H163 H 0.65332 0.26710 -0.21871
 Cu164 Cu 0.69628 0.31315 -0.21964
 Cu165 Cu 0.68590 0.27876 -0.19710
 Cu166 Cu 0.72079 0.30290 -0.18655
 N167 N 0.71619 0.32628 -0.21369
 N168 N 0.72581 0.32213 -0.20087
 C169 C 0.73888 0.33296 -0.19990
 C170 C 0.73729 0.34452 -0.21276
 C171 C 0.72277 0.33996 -0.22126
 H172 H 0.74881 0.33248 -0.19057
 H173 H 0.71755 0.34606 -0.23224
 N174 N 0.71371 0.28296 -0.17361
 N175 N 0.70053 0.27364 -0.17772
 C176 C 0.69930 0.26072 -0.16681
 C177 C 0.71225 0.26207 -0.15527
 C178 C 0.72114 0.27627 -0.15992
 H179 H 0.68974 0.25100 -0.16721
 H180 H 0.73231 0.28121 -0.15385
 H181 H 0.69497 0.30243 -0.19092
 H182 H 0.70848 0.28916 -0.20491
 N183 N 0.17353 0.78628 0.28364
 N184 N 0.17781 0.79940 0.27451
 C185 C 0.16696 0.80081 0.26152
 C186 C 0.15528 0.78792 0.26266
 C187 C 0.15979 0.77897 0.27685
 H188 H 0.16750 0.81042 0.25191
 H189 H 0.15362 0.76785 0.28174
 Cu190 Cu 0.19731 0.81317 0.28041
 Cu191 Cu 0.18640 0.77925 0.30328
 Cu192 Cu 0.22134 0.80335 0.31392
 N193 N 0.21687 0.82663 0.28668
 N194 N 0.22640 0.82258 0.29961
 C195 C 0.23939 0.83350 0.30069
 C196 C 0.23783 0.84505 0.28777
 C197 C 0.22340 0.84036 0.27917
 H198 H 0.24923 0.83306 0.31012
 H199 H 0.21824 0.84638 0.26811
 N200 N 0.21417 0.78342 0.32683
 N201 N 0.20098 0.77412 0.32268
 C202 C 0.19972 0.76118 0.33356
 C203 C 0.21266 0.76249 0.34511
 C204 C 0.22155 0.77672 0.34053
 H205 H 0.19016 0.75146 0.33313
 H206 H 0.23270 0.78164 0.34665
 H207 H 0.19565 0.80287 0.30920
 H208 H 0.20923 0.78932 0.29562
 N209 N 0.46410 0.42261 0.46622
 N210 N 0.45076 0.42672 0.47515
 C211 C 0.44938 0.41600 0.48821
 C212 C 0.46251 0.40456 0.48730
 C213 C 0.47159 0.40910 0.47320
 H214 H 0.43961 0.41645 0.49768
 H215 H 0.48293 0.40313 0.46853
 Cu216 Cu 0.43653 0.44575 0.46894
 Cu217 Cu 0.47118 0.43538 0.44662
 Cu218 Cu 0.44706 0.47014 0.43589
 N219 N 0.42360 0.46574 0.46297
 N220 N 0.42781 0.47528 0.45013
 C221 C 0.41704 0.48837 0.44913
 C222 C 0.40544 0.48689 0.46199
 C223 C 0.40993 0.47242 0.47051
 H224 H 0.41760 0.49825 0.43979
 H225 H 0.40376 0.46727 0.48148
 N226 N 0.46703 0.46298 0.42304
 N227 N 0.47637 0.44986 0.42723
 C228 C 0.48937 0.44859 0.41636
 C229 C 0.48802 0.46147 0.40479
 C230 C 0.47375 0.47033 0.40935
 H231 H 0.49911 0.43905 0.41679
 H232 H 0.46879 0.48142 0.40321
 H233 H 0.46070 0.45790 0.45442
 H234 H 0.44748 0.44442 0.44033
 N235 N -0.03589 -0.07699 0.96584
 N236 N -0.04897 -0.07258 0.97501
 C237 C -0.05036 -0.08327 0.98810
 C238 C -0.03752 -0.09502 0.98693
 C239 C -0.02859 -0.09068 0.97268
 H240 H -0.05990 -0.08260 0.99779
 H241 H -0.01746 -0.09688 0.96780
 Cu242 Cu -0.06254 -0.05306 0.96896
 Cu243 Cu -0.02881 -0.06431 0.94611
 Cu244 Cu -0.05296 -0.02939 0.93541
 N245 N -0.07610 -0.03355 0.96290
 N246 N -0.07216 -0.02422 0.94982
 C247 C -0.08309 -0.01126 0.94873
 C248 C -0.09448 -0.01261 0.96178
 C249 C -0.08973 -0.02687 0.97052
 H250 H -0.08274 -0.00154 0.93922
 H251 H -0.09567 -0.03182 0.98171
 N252 N -0.03304 -0.03669 0.92247
 N253 N -0.02371 -0.04984 0.92664
 C254 C -0.01072 -0.05111 0.91577
 C255 C -0.01206 -0.03822 0.90421
 C256 C -0.02631 -0.02934 0.90878
 H257 H -0.00095 -0.06061 0.91623
 H258 H -0.03122 -0.01819 0.90270
 H259 H -0.03869 -0.04141 0.95358
 H260 H -0.05243 -0.05498 0.94015
 N261 N 1.03520 0.57567 0.96787
 N262 N 1.04791 0.57084 0.97738
 C263 C 1.04900 0.58123 0.99075
 C264 C 1.03636 0.59319 0.98940
 C265 C 1.02785 0.58928 0.97476
 H266 H 1.05844 0.58040 1.00053
 H267 H 1.01718 0.59596 0.96947
 Cu268 Cu 1.06198 0.55184 0.97070
 Cu269 Cu 1.02906 0.56415 0.94712
 Cu270 Cu 1.05479 0.53108 0.93470
 N271 N 1.07605 0.53282 0.96401
 N272 N 1.07360 0.52537 0.94945
 C273 C 1.08517 0.51311 0.94745
 C274 C 1.09525 0.51272 0.96158
 C275 C 1.08912 0.52531 0.97190
 H276 H 1.08597 0.50479 0.93672
 H277 H 1.09396 0.52880 0.98412
 N278 N 1.03501 0.53859 0.92167
 N279 N 1.02495 0.55091 0.92657
 C280 C 1.01197 0.55218 0.91566
 C281 C 1.01403 0.54011 0.90335
 C282 C 1.02875 0.53177 0.90749
 H283 H 1.00162 0.56102 0.91671
 H284 H 1.03417 0.52118 0.90088
 H285 H 1.03933 0.54103 0.95315
 H286 H 1.05322 0.55615 0.94167
 N287 N 0.53601 0.07730 0.46616
 N288 N 0.54912 0.07291 0.47533
 C289 C 0.55050 0.08360 0.48842
 C290 C 0.53763 0.09530 0.48727
 C291 C 0.52869 0.09096 0.47301
 H292 H 0.56006 0.08292 0.49811
 H293 H 0.51754 0.09715 0.46812
 Cu294 Cu 0.56272 0.05342 0.46926
 Cu295 Cu 0.52893 0.06462 0.44641
 Cu296 Cu 0.55314 0.02977 0.43568
 N297 N 0.57633 0.03394 0.46319
 N298 N 0.57237 0.02461 0.45011
 C299 C 0.58328 0.01164 0.44903
 C300 C 0.59470 0.01298 0.46209
 C301 C 0.58997 0.02726 0.47082
 H302 H 0.58292 0.00191 0.43953
 H303 H 0.59591 0.03220 0.48201
 N304 N 0.53320 0.03704 0.42273
 N305 N 0.52385 0.05017 0.42690
 C306 C 0.51088 0.05147 0.41599
 C307 C 0.51222 0.03859 0.40443
 C308 C 0.52648 0.02971 0.40902
 H309 H 0.50113 0.06099 0.41641
 H310 H 0.53139 0.01857 0.40292
 H311 H 0.53883 0.04174 0.45386
 H312 H 0.55251 0.05536 0.44047
 N313 N -0.03598 0.07750 0.53332
 N314 N -0.04933 0.07340 0.52436
 C315 C -0.05071 0.08415 0.51132
 C316 C -0.03759 0.09560 0.51227
 C317 C -0.02851 0.09104 0.52638
 H318 H -0.06048 0.08371 0.50183
 H319 H -0.01720 0.09704 0.53112
 Cu320 Cu -0.06357 0.05439 0.53056
 Cu321 Cu -0.02896 0.06475 0.55298
 Cu322 Cu -0.05318 0.03008 0.56371
 N323 N -0.07661 0.03448 0.53655
 N324 N -0.07243 0.02496 0.54942
 C325 C -0.08320 0.01186 0.55037
 C326 C -0.09474 0.01330 0.53745
 C327 C -0.09025 0.02778 0.52893
 H328 H -0.08265 0.00197 0.55970
 H329 H -0.09635 0.03289 0.51790
 N330 N -0.03322 0.03722 0.57662
 N331 N -0.02384 0.05030 0.57244
 C332 C -0.01084 0.05153 0.58332
 C333 C -0.01219 0.03865 0.59487
 C334 C -0.02651 0.02984 0.59031
 H335 H -0.00106 0.06103 0.58288
 H336 H -0.03147 0.01874 0.59643
 H337 H -0.03943 0.04221 0.54521
 H338 H -0.05265 0.05577 0.55920
 N339 N 0.46418 0.57697 0.03325
 N340 N 0.45102 0.57272 0.02409
 C341 C 0.44964 0.58354 0.01111
 C342 C 0.46255 0.59519 0.01232
 C343 C 0.47155 0.59066 0.02649
 H344 H 0.44003 0.58301 0.00148
 H345 H 0.48275 0.59677 0.03136
 Cu346 Cu 0.43711 0.55343 0.03001
 Cu347 Cu 0.47120 0.56416 0.05291
 Cu348 Cu 0.44677 0.52950 0.06355
 N349 N 0.42346 0.53406 0.03626
 N350 N 0.42740 0.52462 0.04926
 C351 C 0.41628 0.51182 0.05041
 C352 C 0.40473 0.51342 0.03749
 C353 C 0.40962 0.52764 0.02877
 H354 H 0.41660 0.50202 0.05986
 H355 H 0.40367 0.53272 0.01766
 N356 N 0.46686 0.53649 0.07643
 N357 N 0.47626 0.54960 0.07232
 C358 C 0.48929 0.55073 0.08318
 C359 C 0.48791 0.53779 0.09469
 C360 C 0.47359 0.52902 0.09006
 H361 H 0.49910 0.56019 0.08275
 H362 H 0.46862 0.51788 0.09610
 H363 H 0.46094 0.54151 0.04529
 H364 H 0.44738 0.55517 0.05883
 N365 N 0.53612 -0.07706 0.03368
 N366 N 0.54926 -0.07274 0.02455
 C367 C 0.55068 -0.08351 0.01154
 C368 C 0.53780 -0.09520 0.01268
 C369 C 0.52883 -0.09077 0.02689
 H370 H 0.56029 -0.08290 0.00191
 H371 H 0.51769 -0.09695 0.03177
 Cu372 Cu 0.56303 -0.05329 0.03044
 Cu373 Cu 0.52904 -0.06429 0.05331
 Cu374 Cu 0.55321 -0.02951 0.06404
 N375 N 0.57649 -0.03377 0.03674
 N376 N 0.57250 -0.02440 0.04977
 C377 C 0.58347 -0.01149 0.05091
 C378 C 0.59494 -0.01290 0.03793
 C379 C 0.59019 -0.02716 0.02920
 H380 H 0.58312 -0.00177 0.06042
 H381 H 0.59617 -0.03218 0.01806
 N382 N 0.53321 -0.03667 0.07690
 N383 N 0.52387 -0.04979 0.07271
 C384 C 0.51086 -0.05104 0.08356
 C385 C 0.51217 -0.03814 0.09511
 C386 C 0.52646 -0.02930 0.09057
 H387 H 0.50112 -0.06059 0.08311
 H388 H 0.53141 -0.01819 0.09669
 H389 H 0.53911 -0.04154 0.04578
 H390 H 0.55276 -0.05514 0.05927
 N391 N 1.03632 0.42326 0.53374
 N392 N 1.04962 0.42741 0.52476
 C393 C 1.05097 0.41669 0.51170
 C394 C 1.03787 0.40523 0.51265
 C395 C 1.02884 0.40973 0.52679
 H396 H 1.06067 0.41720 0.50216
 H397 H 1.01754 0.40373 0.53153
 Cu398 Cu 1.06376 0.44651 0.53089
 Cu399 Cu 1.02926 0.43606 0.55334
 Cu400 Cu 1.05335 0.47088 0.56395
 N401 N 1.07678 0.46644 0.53684
 N402 N 1.07259 0.47600 0.54967
 C403 C 1.08336 0.48910 0.55061
 C404 C 1.09491 0.48761 0.53770
 C405 C 1.09041 0.47310 0.52923
 H406 H 1.08284 0.49899 0.55993
 H407 H 1.09653 0.46795 0.51824
 N408 N 1.03341 0.46372 0.57685
 N409 N 1.02409 0.45056 0.57272
 C410 C 1.01111 0.44931 0.58359
 C411 C 1.01241 0.46225 0.59510
 C412 C 1.02666 0.47112 0.59049
 H413 H 1.00138 0.43975 0.58320
 H414 H 1.03156 0.48228 0.59656
 H415 H 1.03963 0.45861 0.54553
 H416 H 1.05296 0.44516 0.55955
 C417 C 0.35641 -0.01518 0.25314
 C418 C 0.36516 -0.00017 0.24984
 C419 C 0.35621 0.01474 0.24659
 C420 C 0.33848 0.01478 0.24682
 C421 C 0.32987 -0.00035 0.25000
 C422 C 0.33867 -0.01539 0.25308
 C423 C 0.38373 -0.00007 0.24981
 C424 C 0.39259 -0.00375 0.23499
 C425 C 0.41033 -0.00352 0.23486
 C426 C 0.41901 0.00010 0.24981
 C427 C 0.41032 0.00361 0.26476
 C428 C 0.39258 0.00369 0.26463
 H429 H 0.36344 -0.02666 0.25545
 H430 H 0.36308 0.02628 0.24415
 H431 H 0.38564 -0.00651 0.22359
 H432 H 0.38563 0.00637 0.27604
 H433 H 0.31618 -0.00044 0.25008
 H434 H 0.43270 0.00018 0.24981
 C435 C 0.14370 -0.01498 0.74620
 C436 C 0.13489 -0.00002 0.74958
 C437 C 0.14379 0.01488 0.75298
 C438 C 0.16153 0.01494 0.75289
 C439 C 0.17019 -0.00015 0.74968
 C440 C 0.16143 -0.01518 0.74641
 C441 C 0.11631 0.00004 0.74958
 C442 C 0.10746 -0.00367 0.76440
 C443 C 0.08972 -0.00346 0.76454
 C444 C 0.08102 0.00013 0.74959
 C445 C 0.08971 0.00366 0.73464
 C446 C 0.10744 0.00378 0.73477
 H447 H 0.13671 -0.02644 0.74365
 H448 H 0.13688 0.02638 0.75550
 H449 H 0.11441 -0.00642 0.77581
 H450 H 0.11439 0.00649 0.72336
 H451 H 0.18387 -0.00022 0.74972
 H452 H 0.06734 0.00017 0.74959
 C453 C 0.64351 0.48473 0.24635
 C454 C 0.63462 0.49962 0.24984
 C455 C 0.64344 0.51455 0.25334
 C456 C 0.66117 0.51471 0.25320
 C457 C 0.66991 0.49968 0.24992
 C458 C 0.66124 0.48463 0.24658
 C459 C 0.61605 0.49960 0.24983
 C460 C 0.60721 0.49591 0.26465
 C461 C 0.58947 0.49604 0.26477
 C462 C 0.58077 0.49957 0.24981
 C463 C 0.58946 0.50308 0.23484
 C464 C 0.60719 0.50326 0.23499
 H465 H 0.63658 0.47326 0.24371
 H466 H 0.63647 0.52601 0.25591
 H467 H 0.61417 0.49321 0.27607
 H468 H 0.61415 0.50598 0.22359
 H469 H 0.68359 0.49970 0.24997
 H470 H 0.56709 0.49959 0.24980
 C471 C 0.85681 0.48497 0.75363
 C472 C 0.86564 0.49988 0.75015
 C473 C 0.85677 0.51479 0.74666
 C474 C 0.83903 0.51492 0.74687
 C475 C 0.83035 0.49988 0.75023
 C476 C 0.83908 0.48483 0.75349
 C477 C 0.88422 0.49985 0.75010
 C478 C 0.89301 0.49634 0.73520
 C479 C 0.91074 0.49642 0.73503
 C480 C 0.91950 0.49970 0.75002
 C481 C 0.91087 0.50305 0.76505
 C482 C 0.89313 0.50326 0.76496
 H483 H 0.86377 0.47350 0.75616
 H484 H 0.86371 0.52625 0.74402
 H485 H 0.88601 0.49382 0.72376
 H486 H 0.88622 0.50583 0.77642
 H487 H 0.81667 0.49987 0.75027
 H488 H 0.93318 0.49965 0.74998
 C489 C 0.25415 0.35681 -0.01475
 C490 C 0.25043 0.36572 0.00002
 C491 C 0.24674 0.35700 0.01490
 C492 C 0.24691 0.33931 0.01513
 C493 C 0.25043 0.33056 0.00019
 C494 C 0.25399 0.33914 -0.01480
 C495 C 0.25022 0.38422 -0.00031
 C496 C 0.23519 0.39276 -0.00414
 C497 C 0.23526 0.41029 -0.00618
 C498 C 0.25037 0.41924 -0.00402
 C499 C 0.26537 0.41092 0.00053
 C500 C 0.26521 0.39331 0.00224
 H501 H 0.25684 0.36368 -0.02620
 H502 H 0.24399 0.36401 0.02625
 H503 H 0.22361 0.38571 -0.00606
 H504 H 0.27674 0.38662 0.00524
 H505 H 0.25041 0.31692 0.00024
 H506 H 0.25025 0.43282 -0.00539
 C507 C 0.74655 0.14280 -0.01519
 C508 C 0.75012 0.13400 -0.00031
 C509 C 0.75378 0.14285 0.01451
 C510 C 0.75370 0.16053 0.01460
 C511 C 0.75029 0.16916 -0.00041
 C512 C 0.74679 0.16048 -0.01537
 C513 C 0.75010 0.11548 -0.00027
 C514 C 0.76505 0.10665 -0.00375
 C515 C 0.76518 0.08897 -0.00350
 C516 C 0.75011 0.08031 -0.00015
 C517 C 0.73503 0.08899 0.00314
 C518 C 0.73515 0.10666 0.00326
 H519 H 0.74387 0.13585 -0.02660
 H520 H 0.75641 0.13594 0.02596
 H521 H 0.77655 0.11356 -0.00637
 H522 H 0.72363 0.11358 0.00584
 H523 H 0.75034 0.18280 -0.00044
 H524 H 0.75012 0.06667 -0.00011
 C525 C 0.24684 0.64294 0.48492
 C526 C 0.25041 0.63411 0.49977
 C527 C 0.25387 0.64291 0.51467
 C528 C 0.25366 0.66059 0.51483
 C529 C 0.25026 0.66927 0.49984
 C530 C 0.24691 0.66062 0.48483
 C531 C 0.25040 0.61560 0.49974
 C532 C 0.26536 0.60674 0.49634
 C533 C 0.26544 0.58906 0.49650
 C534 C 0.25031 0.58044 0.49975
 C535 C 0.23524 0.58915 0.50300
 C536 C 0.23541 0.60682 0.50314
 H537 H 0.24428 0.63603 0.47346
 H538 H 0.25643 0.63597 0.52611
 H539 H 0.27690 0.61364 0.49386
 H540 H 0.22390 0.61378 0.50566
 H541 H 0.25022 0.68291 0.49986
 H542 H 0.25028 0.56680 0.49974
 C543 C 0.75364 0.85732 0.48488
 C544 C 0.75008 0.86616 0.49973
 C545 C 0.74649 0.85736 0.51459
 C546 C 0.74660 0.83969 0.51473
 C547 C 0.75001 0.83101 0.49976
 C548 C 0.75348 0.83964 0.48477
 C549 C 0.75011 0.88467 0.49971
 C550 C 0.73516 0.89351 0.49624
 C551 C 0.73506 0.91118 0.49641
 C552 C 0.75016 0.91983 0.49970
 C553 C 0.76524 0.91114 0.50300
 C554 C 0.76509 0.89347 0.50316
 H555 H 0.75626 0.86424 0.47344
 H556 H 0.74391 0.86431 0.52602
 H557 H 0.72363 0.88660 0.49369
 H558 H 0.77660 0.88653 0.50573
 H559 H 0.74997 0.81737 0.49977
 H560 H 0.75016 0.93347 0.49967
 C561 C -0.01515 0.25305 0.35643
 C562 C -0.00026 0.25022 0.36559
 C563 C 0.01470 0.24597 0.35717
 C564 C 0.01469 0.24389 0.33970
 C565 C -0.00035 0.24624 0.33068
 C566 C -0.01529 0.25115 0.33887
 C567 C -0.00052 0.25065 0.38406
 C568 C -0.00422 0.23586 0.39299
 C569 C -0.00406 0.23585 0.41061
 C570 C -0.00051 0.25089 0.41914
 C571 C 0.00304 0.26583 0.41039
 C572 C 0.00323 0.26559 0.39275
 H573 H -0.02663 0.25645 0.36302
 H574 H 0.02619 0.24381 0.36427
 H575 H -0.00684 0.22434 0.38617
 H576 H 0.00605 0.27697 0.38578
 H577 H -0.00023 0.24477 0.31715
 H578 H -0.00049 0.25097 0.43274
 C579 C -0.01487 0.74646 0.14275
 C580 C 0.00002 0.75020 0.13394
 C581 C 0.01495 0.75389 0.14274
 C582 C 0.01511 0.75366 0.16038
 C583 C 0.00008 0.75013 0.16901
 C584 C -0.01497 0.74663 0.16038
 C585 C 0.00001 0.75018 0.11546
 C586 C -0.00361 0.76504 0.10661
 C587 C -0.00339 0.76514 0.08897
 C588 C 0.00011 0.75010 0.08038
 C589 C 0.00355 0.73510 0.08906
 C590 C 0.00365 0.73528 0.10670
 H591 H -0.02634 0.74369 0.13584
 H592 H 0.02641 0.75664 0.13583
 H593 H -0.00635 0.77650 0.11349
 H594 H 0.00635 0.72385 0.11365
 H595 H 0.00010 0.75011 0.18261
 H596 H 0.00014 0.75008 0.06678
 C597 C 0.48508 0.24615 0.64328
 C598 C 0.49998 0.24984 0.63445
 C599 C 0.51492 0.25354 0.64324
 C600 C 0.51509 0.25336 0.66088
 C601 C 0.50006 0.24985 0.66953
 C602 C 0.48500 0.24632 0.66092
 C603 C 0.49994 0.24986 0.61596
 C604 C 0.49638 0.26479 0.60719
 C605 C 0.49655 0.26497 0.58955
 C606 C 0.49995 0.24997 0.58088
 C607 C 0.50335 0.23492 0.58946
 C608 C 0.50350 0.23498 0.60710
 H609 H 0.47358 0.24344 0.63640
 H610 H 0.52640 0.25623 0.63634
 H611 H 0.49376 0.27624 0.61412
 H612 H 0.50617 0.22349 0.61396
 H613 H 0.50010 0.24985 0.68313
 H614 H 0.49997 0.25003 0.56727
 C615 C 0.48505 0.75394 0.85683
 C616 C 0.50000 0.75025 0.86560
 C617 C 0.51489 0.74654 0.85676
 C618 C 0.51496 0.74668 0.83913
 C619 C 0.49988 0.75020 0.83054
 C620 C 0.48487 0.75373 0.83920
 C621 C 0.50004 0.75021 0.88407
 C622 C 0.49648 0.73529 0.89285
 C623 C 0.49667 0.73513 0.91048
 C624 C 0.50016 0.75013 0.91914
 C625 C 0.50356 0.76516 0.91053
 C626 C 0.50363 0.76509 0.89290
 H627 H 0.47359 0.75667 0.86376
 H628 H 0.52638 0.74375 0.86364
 H629 H 0.49384 0.72383 0.88593
 H630 H 0.50619 0.77658 0.88601
 H631 H 0.49982 0.75018 0.81694
 H632 H 0.50021 0.75010 0.93274
 C633 C 0.11488 0.22007 0.27106
 N634 N 0.12021 0.20416 0.26772
 N635 N 0.13310 0.20150 0.25730
 C636 C 0.14097 0.21461 0.24966
 N637 N 0.13560 0.23051 0.25295
 N638 N 0.12286 0.23320 0.26355
 C639 C 0.10054 0.22300 0.28237
 N640 N 0.09876 0.23797 0.29042
 N641 N 0.08554 0.24075 0.30040
 C642 C 0.07352 0.22875 0.30251
 N643 N 0.07527 0.21381 0.29441
 N644 N 0.08861 0.21092 0.28463
 C645 C 0.05852 0.23213 0.31280
 N646 N 0.04371 0.22424 0.30936
 N647 N 0.02983 0.22788 0.31806
 C648 C 0.03029 0.23933 0.33071
 N649 N 0.04518 0.24703 0.33435
 N650 N 0.05903 0.24359 0.32546
 C651 C 0.61480 0.72300 0.76942
 N652 N 0.62622 0.71086 0.77340
 N653 N 0.63909 0.70750 0.76313
 C654 C 0.64102 0.71620 0.74855
 N655 N 0.62962 0.72834 0.74463
 N656 N 0.61673 0.73164 0.75485
 C657 C 0.60039 0.72665 0.78045
 N658 N 0.58801 0.73721 0.77518
 N659 N 0.57476 0.74047 0.78492
 C660 C 0.57342 0.73338 0.80037
 N661 N 0.58584 0.72285 0.80572
 N662 N 0.59908 0.71952 0.79591
 C663 C 0.55854 0.73692 0.81078
 N664 N 0.55759 0.73172 0.82701
 N665 N 0.54385 0.73493 0.83618
 C666 C 0.53053 0.74336 0.82939
 N667 N 0.53159 0.74853 0.81317
 N668 N 0.54531 0.74543 0.80407
 C669 C 0.38485 0.77727 0.76951
 N670 N 0.38266 0.76835 0.75513
 N671 N 0.36987 0.77179 0.74482
 C672 C 0.35883 0.78435 0.74844
 N673 N 0.36102 0.79332 0.76281
 N674 N 0.37379 0.78982 0.77318
 C675 C 0.39920 0.77352 0.78063
 N676 N 0.40077 0.78104 0.79589
 N677 N 0.41399 0.77766 0.80575
 C678 C 0.42612 0.76670 0.80064
 N679 N 0.42451 0.75920 0.78541
 N680 N 0.41129 0.76250 0.77562
 C681 C 0.44108 0.76323 0.81101
 N682 N 0.45417 0.75446 0.80438
 N683 N 0.46796 0.75143 0.81344
 C684 C 0.46922 0.75694 0.82953
 N685 N 0.45606 0.76563 0.83624
 N686 N 0.44225 0.76878 0.82712
 C687 C -0.11445 0.27633 0.26837
 N688 N -0.11700 0.26725 0.25415
 N689 N -0.12987 0.27076 0.24396
 C690 C -0.14066 0.28357 0.24753
 N691 N -0.13809 0.29270 0.26174
 N692 N -0.12524 0.28913 0.27200
 C693 C -0.10010 0.27239 0.27943
 N694 N -0.09834 0.27995 0.29464
 N695 N -0.08521 0.27629 0.30451
 C696 C -0.07335 0.26500 0.29949
 N697 N -0.07511 0.25750 0.28428
 N698 N -0.08826 0.26108 0.27446
 C699 C -0.05860 0.26111 0.31005
 N700 N -0.04577 0.25171 0.30376
 N701 N -0.03214 0.24847 0.31299
 C702 C -0.03080 0.25438 0.32894
 N703 N -0.04373 0.26366 0.33531
 N704 N -0.05737 0.26700 0.32602
 C705 C -0.11469 0.72285 0.23025
 N706 N -0.12601 0.71060 0.22638
 N707 N -0.13882 0.70718 0.23671
 C708 C -0.14078 0.71593 0.25125
 N709 N -0.12950 0.72822 0.25506
 N710 N -0.11667 0.73158 0.24478
 C711 C -0.10032 0.72654 0.21917
 N712 N -0.08806 0.73730 0.22432
 N713 N -0.07487 0.74063 0.21452
 C714 C -0.07346 0.73341 0.19913
 N715 N -0.08575 0.72267 0.19391
 N716 N -0.09894 0.71927 0.20378
 C717 C -0.05859 0.73697 0.18870
 N718 N -0.05758 0.73164 0.17251
 N719 N -0.04383 0.73484 0.16334
 C720 C -0.03057 0.74337 0.17009
 N721 N -0.03169 0.74869 0.18626
 N722 N -0.04542 0.74560 0.19535
 C723 C 0.38518 0.22284 0.73073
 N724 N 0.37431 0.21007 0.72725
 N725 N 0.36150 0.20665 0.73758
 C726 C 0.35906 0.21591 0.75173
 N727 N 0.36991 0.22871 0.75513
 N728 N 0.38274 0.23207 0.74487
 C729 C 0.39955 0.22651 0.71966
 N730 N 0.41157 0.23763 0.72459
 N731 N 0.42477 0.24092 0.71480
 C732 C 0.42643 0.23329 0.69964
 N733 N 0.41434 0.22225 0.69460
 N734 N 0.40114 0.21888 0.70446
 C735 C 0.44136 0.23672 0.68925
 N736 N 0.44251 0.23107 0.67318
 N737 N 0.45627 0.23423 0.66401
 C738 C 0.46940 0.24305 0.67064
 N739 N 0.46816 0.24865 0.68670
 N740 N 0.45442 0.24560 0.69580
 C741 C 0.61519 0.27690 0.73045
 N742 N 0.61784 0.26749 0.74444
 N743 N 0.63070 0.27084 0.75469
 C744 C 0.64138 0.28381 0.75142
 N745 N 0.63870 0.29328 0.73744
 N746 N 0.62587 0.28986 0.72712
 C747 C 0.60081 0.27318 0.71939
 N748 N 0.59906 0.28091 0.70426
 N749 N 0.58581 0.27753 0.69443
 C750 C 0.57383 0.26638 0.69946
 N751 N 0.57562 0.25867 0.71456
 N752 N 0.58888 0.26196 0.72431
 C753 C 0.55886 0.26290 0.68910
 N754 N 0.54584 0.25400 0.69568
 N755 N 0.53206 0.25095 0.68662
 C756 C 0.53075 0.25656 0.67056
 N757 N 0.54386 0.26537 0.66390
 N758 N 0.55765 0.26854 0.67303
 C759 C 0.11506 0.77730 0.23020
 N760 N 0.11711 0.76854 0.24470
 N761 N 0.12993 0.77194 0.25499
 C762 C 0.14114 0.78429 0.25123
 N763 N 0.13910 0.79309 0.23673
 N764 N 0.12630 0.78964 0.22638
 C765 C 0.10070 0.77356 0.21909
 N766 N 0.09922 0.78092 0.20374
 N767 N 0.08601 0.77752 0.19388
 C768 C 0.07379 0.76669 0.19907
 N769 N 0.07530 0.75938 0.21440
 N770 N 0.08851 0.76270 0.22419
 C771 C 0.05886 0.76317 0.18866
 N772 N 0.04573 0.75447 0.19529
 N773 N 0.03196 0.75144 0.18622
 C774 C 0.03075 0.75688 0.17009
 N775 N 0.04396 0.76550 0.16338
 N776 N 0.05775 0.76864 0.17252
 C777 C 0.26801 0.11391 0.22254
 N778 N 0.27239 0.12533 0.21063
 N779 N 0.26205 0.13801 0.20678
 C780 C 0.24697 0.13973 0.21474
 N781 N 0.24263 0.12834 0.22668
 N782 N 0.25293 0.11563 0.23048
 C783 C 0.27922 0.09977 0.22670
 N784 N 0.27385 0.08744 0.23720
 N785 N 0.28377 0.07437 0.24074
 C786 C 0.29947 0.07318 0.23402
 N787 N 0.30492 0.08557 0.22358
 N788 N 0.29495 0.09862 0.21996
 C789 C 0.31001 0.05842 0.23770
 N790 N 0.32639 0.05757 0.23266
 N791 N 0.33560 0.04383 0.23575
 C792 C 0.32872 0.03041 0.24388
 N793 N 0.31240 0.03142 0.24899
 N794 N 0.30325 0.04514 0.24601
 C795 C 0.76947 0.61485 0.72302
 N796 N 0.77355 0.62595 0.71070
 N797 N 0.76339 0.63888 0.70719
 C798 C 0.74885 0.64122 0.71593
 N799 N 0.74481 0.63016 0.72828
 N800 N 0.75491 0.61719 0.73173
 C801 C 0.78043 0.60041 0.72679
 N802 N 0.77517 0.58831 0.73761
 N803 N 0.78491 0.57506 0.74094
 C804 C 0.80034 0.57345 0.73369
 N805 N 0.80566 0.58559 0.72289
 N806 N 0.79586 0.59882 0.71948
 C807 C 0.81075 0.55858 0.73731
 N808 N 0.82701 0.55746 0.73196
 N809 N 0.83616 0.54371 0.73516
 C810 C 0.82933 0.53055 0.74371
 N811 N 0.81310 0.53179 0.74908
 N812 N 0.80402 0.54553 0.74599
 C813 C 0.76958 0.38467 0.77604
 N814 N 0.77374 0.37336 0.78815
 N815 N 0.76344 0.36058 0.79175
 C816 C 0.74865 0.35861 0.78332
 N817 N 0.74453 0.36988 0.77117
 N818 N 0.75478 0.38270 0.76763
 C819 C 0.78066 0.39901 0.77229
 N820 N 0.77534 0.41135 0.76176
 N821 N 0.78513 0.42458 0.75856
 C822 C 0.80066 0.42595 0.76567
 N823 N 0.80606 0.41357 0.77615
 N824 N 0.79621 0.40034 0.77942
 C825 C 0.81101 0.44092 0.76236
 N826 N 0.82732 0.44196 0.76762
 N827 N 0.83639 0.45582 0.76467
 C828 C 0.82943 0.46916 0.75648
 N829 N 0.81315 0.46801 0.75124
 N830 N 0.80414 0.45417 0.75407
 C831 C 0.26932 -0.11536 0.27673
 N832 N 0.25506 -0.11803 0.26763
 N833 N 0.24488 -0.13091 0.27118
 C834 C 0.24853 -0.14153 0.28405
 N835 N 0.26280 -0.13884 0.29316
 N836 N 0.27303 -0.12602 0.28954
 C837 C 0.28037 -0.10104 0.27285
 N838 N 0.29568 -0.09931 0.28039
 N839 N 0.30552 -0.08613 0.27691
 C840 C 0.30033 -0.07418 0.26584
 N841 N 0.28504 -0.07594 0.25834
 N842 N 0.27527 -0.08914 0.26173
 C843 C 0.31070 -0.05928 0.26225
 N844 N 0.30395 -0.04629 0.25347
 N845 N 0.31294 -0.03248 0.25048
 C846 C 0.32910 -0.03111 0.25604
 N847 N 0.33597 -0.04422 0.26467
 N848 N 0.32690 -0.05804 0.26777
 C849 C 0.23061 -0.11541 0.72304
 N850 N 0.22674 -0.12624 0.71042
 N851 N 0.23699 -0.13905 0.70678
 C852 C 0.25144 -0.14154 0.71567
 N853 N 0.25524 -0.13073 0.72834
 N854 N 0.24505 -0.11788 0.73192
 C855 C 0.21961 -0.10103 0.72687
 N856 N 0.22490 -0.08893 0.73768
 N857 N 0.21516 -0.07568 0.74102
 C858 C 0.19972 -0.07408 0.73377
 N859 N 0.19436 -0.08622 0.72299
 N860 N 0.20417 -0.09945 0.71957
 C861 C 0.18942 -0.05911 0.73724
 N862 N 0.17313 -0.05795 0.73195
 N863 N 0.16409 -0.04410 0.73501
 C864 C 0.17106 -0.03087 0.74336
 N865 N 0.18732 -0.03213 0.74864
 N866 N 0.19630 -0.04597 0.74569
 C867 C 0.73102 0.38475 0.22338
 N868 N 0.72698 0.37364 0.21104
 N869 N 0.73719 0.36077 0.20753
 C870 C 0.75177 0.35851 0.21626
 N871 N 0.75575 0.36955 0.22865
 N872 N 0.74558 0.38246 0.23211
 C873 C 0.72000 0.39916 0.22709
 N874 N 0.72520 0.41128 0.23792
 N875 N 0.71541 0.42450 0.24121
 C876 C 0.70000 0.42606 0.23387
 N877 N 0.69474 0.41391 0.22306
 N878 N 0.70460 0.40071 0.21970
 C879 C 0.68957 0.44094 0.23736
 N880 N 0.67333 0.44205 0.23190
 N881 N 0.66417 0.45581 0.23498
 C882 C 0.67096 0.46901 0.24353
 N883 N 0.68717 0.46779 0.24900
 N884 N 0.69626 0.45403 0.24603
 C885 C 0.73054 0.61481 0.27650
 N886 N 0.72642 0.62597 0.28875
 N887 N 0.73663 0.63882 0.29234
 C888 C 0.75130 0.64101 0.28378
 N889 N 0.75537 0.62990 0.27148
 N890 N 0.74521 0.61701 0.26794
 C891 C 0.71955 0.60040 0.27272
 N892 N 0.72486 0.58822 0.26202
 N893 N 0.71510 0.57498 0.25871
 C894 C 0.69962 0.57347 0.26587
 N895 N 0.69425 0.58568 0.27656
 N896 N 0.70407 0.59890 0.27995
 C897 C 0.68926 0.55855 0.26237
 N898 N 0.67297 0.55746 0.26764
 N899 N 0.66389 0.54363 0.26459
 C900 C 0.67082 0.53037 0.25626
 N901 N 0.68707 0.53158 0.25098
 N902 N 0.69609 0.54540 0.25392
 C903 C 0.23103 0.11500 0.77621
 N904 N 0.24572 0.11717 0.76769
 N905 N 0.25589 0.13005 0.77123
 C906 C 0.25180 0.14118 0.78351
 N907 N 0.23709 0.13904 0.79201
 N908 N 0.22687 0.12620 0.78841
 C909 C 0.22005 0.10059 0.77243
 N910 N 0.20450 0.09920 0.77950
 N911 N 0.19468 0.08598 0.77613
 C912 C 0.20012 0.07364 0.76563
 N913 N 0.21565 0.07507 0.75856
 N914 N 0.22542 0.08831 0.76185
 C915 C 0.18976 0.05869 0.76222
 N916 N 0.19662 0.04545 0.75392
 N917 N 0.18757 0.03167 0.75094
 C918 C 0.17124 0.03056 0.75603
 N919 N 0.16431 0.04388 0.76427
 N920 N 0.17342 0.05768 0.76736
 C921 C 0.22365 0.27091 0.11565
 N922 N 0.23170 0.25592 0.11741
 N923 N 0.22844 0.24599 0.13048
 C924 C 0.21696 0.25062 0.14225
 N925 N 0.20888 0.26562 0.14050
 N926 N 0.21220 0.27561 0.12745
 C927 C 0.22722 0.28168 0.10107
 N928 N 0.22066 0.29746 0.09988
 N929 N 0.22391 0.30707 0.08653
 C930 C 0.23378 0.30121 0.07387
 N931 N 0.24031 0.28545 0.07508
 N932 N 0.23713 0.27589 0.08844
 C933 C 0.23723 0.31143 0.05888
 N934 N 0.24520 0.30436 0.04557
 N935 N 0.24828 0.31330 0.03179
 C936 C 0.24359 0.32971 0.03074
 N937 N 0.23569 0.33686 0.04412
 N938 N 0.23252 0.32787 0.05793
 C939 C 0.72315 0.77005 0.61425
 N940 N 0.73178 0.75542 0.61631
 N941 N 0.72828 0.74519 0.62910
 C942 C 0.71596 0.74917 0.64026
 N943 N 0.70729 0.76379 0.63819
 N944 N 0.71084 0.77406 0.62543
 C945 C 0.72697 0.78113 0.59998
 N946 N 0.71971 0.79658 0.59857
 N947 N 0.72310 0.80643 0.58542
 C948 C 0.73382 0.80113 0.57320
 N949 N 0.74106 0.78570 0.57465
 N950 N 0.73775 0.77591 0.58781
 C951 C 0.73728 0.81152 0.55833
 N952 N 0.74582 0.80477 0.54521
 N953 N 0.74879 0.81382 0.53148
 C954 C 0.74344 0.83002 0.53031
 N955 N 0.73499 0.83686 0.54352
 N956 N 0.73191 0.82774 0.55727
 C957 C 0.77688 0.76997 0.38524
 N958 N 0.78921 0.77395 0.37408
 N959 N 0.79273 0.76368 0.36130
 C960 C 0.78401 0.74910 0.35920
 N961 N 0.77166 0.74516 0.37033
 N962 N 0.76819 0.75537 0.38314
 C963 C 0.77309 0.78103 0.39954
 N964 N 0.76234 0.77581 0.41173
 N965 N 0.75907 0.78559 0.42491
 C966 C 0.76633 0.80100 0.42636
 N967 N 0.77701 0.80631 0.41411
 N968 N 0.78036 0.79648 0.40094
 C969 C 0.76290 0.81139 0.44124
 N970 N 0.76825 0.82762 0.44229
 N971 N 0.76514 0.83675 0.45602
 C972 C 0.75669 0.82993 0.46923
 N973 N 0.75137 0.81372 0.46809
 N974 N 0.75437 0.80465 0.45437
 C975 C 0.27731 0.27002 -0.11482
 N976 N 0.28963 0.27405 -0.12598
 N977 N 0.29308 0.26388 -0.13886
 C978 C 0.28430 0.24935 -0.14106
 N979 N 0.27199 0.24534 -0.12990
 N980 N 0.26860 0.25545 -0.11700
 C981 C 0.27358 0.28098 -0.10042
 N982 N 0.26286 0.27568 -0.08824
 N983 N 0.25963 0.28534 -0.07497
 C984 C 0.26691 0.30073 -0.07340
 N985 N 0.27758 0.30613 -0.08563
 N986 N 0.28089 0.29640 -0.09889
 C987 C 0.26346 0.31104 -0.05845
 N988 N 0.26878 0.32727 -0.05734
 N989 N 0.26567 0.33634 -0.04356
 C990 C 0.25725 0.32945 -0.03036
 N991 N 0.25194 0.31323 -0.03158
 N992 N 0.25494 0.30423 -0.04534
 C993 C 0.72305 0.23006 -0.11494
 N994 N 0.71071 0.22604 -0.12610
 N995 N 0.70721 0.23625 -0.13894
 C996 C 0.71596 0.25081 -0.14110
 N997 N 0.72829 0.25480 -0.12994
 N998 N 0.73174 0.24465 -0.11708
 C999 C 0.72686 0.21903 -0.10061
 N1000 N 0.73770 0.22425 -0.08848
 N1001 N 0.74103 0.21449 -0.07530
 C1002 C 0.73374 0.19910 -0.07378
 N1003 N 0.72296 0.19380 -0.08596
 N1004 N 0.71955 0.20362 -0.09914
 C1005 C 0.73727 0.18871 -0.05892
 N1006 N 0.73181 0.17252 -0.05780
 N1007 N 0.73497 0.16338 -0.04408
 C1008 C 0.74360 0.17016 -0.03094
 N1009 N 0.74904 0.18633 -0.03216
 N1010 N 0.74599 0.19540 -0.04587
 C1011 C 0.22352 0.73029 0.38525
 N1012 N 0.21123 0.72627 0.37403
 N1013 N 0.20771 0.73655 0.36125
 C1014 C 0.21640 0.75115 0.35921
 N1015 N 0.22870 0.75513 0.37040
 N1016 N 0.23216 0.74491 0.38320
 C1017 C 0.22734 0.71921 0.39953
 N1018 N 0.23809 0.72443 0.41173
 N1019 N 0.24140 0.71465 0.42491
 C1020 C 0.23416 0.69922 0.42634
 N1021 N 0.22348 0.69390 0.41407
 N1022 N 0.22010 0.70375 0.40091
 C1023 C 0.23759 0.68884 0.44123
 N1024 N 0.23224 0.67260 0.44227
 N1025 N 0.23531 0.66348 0.45602
 C1026 C 0.24373 0.67032 0.46926
 N1027 N 0.24905 0.68653 0.46813
 N1028 N 0.24609 0.69558 0.45439
 C1029 C 0.27652 0.73016 0.61455
 N1030 N 0.28886 0.72621 0.62574
 N1031 N 0.29233 0.73648 0.63854
 C1032 C 0.28354 0.75102 0.64062
 N1033 N 0.27120 0.75494 0.62945
 N1034 N 0.26779 0.74473 0.61662
 C1035 C 0.27277 0.71908 0.60026
 N1036 N 0.26197 0.72426 0.58808
 N1037 N 0.25875 0.71449 0.57488
 C1038 C 0.26612 0.69913 0.57339
 N1039 N 0.27686 0.69387 0.58563
 N1040 N 0.28016 0.70369 0.59882
 C1041 C 0.26274 0.68877 0.55850
 N1042 N 0.26825 0.67259 0.55740
 N1043 N 0.26524 0.66348 0.54363
 C1044 C 0.25671 0.67026 0.53043
 N1045 N 0.25121 0.68641 0.53164
 N1046 N 0.25411 0.69546 0.54539
 C1047 C 0.77726 0.23020 0.11412
 N1048 N 0.78956 0.22614 0.12530
 N1049 N 0.79311 0.23637 0.13810
 C1050 C 0.78444 0.25099 0.14019
 N1051 N 0.77212 0.25501 0.12904
 N1052 N 0.76863 0.24482 0.11621
 C1053 C 0.77344 0.21915 0.09981
 N1054 N 0.76271 0.22441 0.08760
 N1055 N 0.75939 0.21464 0.07443
 C1056 C 0.76659 0.19919 0.07300
 N1057 N 0.77727 0.19385 0.08526
 N1058 N 0.78066 0.20369 0.09842
 C1059 C 0.76311 0.18880 0.05814
 N1060 N 0.76842 0.17255 0.05712
 N1061 N 0.76531 0.16341 0.04339
 C1062 C 0.75690 0.17025 0.03014
 N1063 N 0.75161 0.18648 0.03126
 N1064 N 0.75461 0.19555 0.04498
 C1065 C 0.47331 0.36474 0.51997
 N1066 N 0.46074 0.37579 0.52361
 N1067 N 0.45725 0.38849 0.51321
 C1068 C 0.46623 0.39060 0.49883
 N1069 N 0.47882 0.37957 0.49524
 N1070 N 0.48226 0.36685 0.50559
 C1071 C 0.47707 0.35047 0.53111
 N1072 N 0.48813 0.33843 0.52612
 N1073 N 0.49143 0.32525 0.53590
 C1074 C 0.48388 0.32365 0.55111
 N1075 N 0.47288 0.33575 0.55621
 N1076 N 0.46950 0.34892 0.54635
 C1077 C 0.48730 0.30872 0.56146
 N1078 N 0.48166 0.30753 0.57753
 N1079 N 0.48473 0.29374 0.58662
 C1080 C 0.49343 0.28060 0.57991
 N1081 N 0.49904 0.28188 0.56385
 N1082 N 0.49608 0.29566 0.55483
 C1083 C -0.02702 0.86487 0.01935
 N1084 N -0.03922 0.87624 0.02328
 N1085 N -0.04262 0.88903 0.01295
 C1086 C -0.03391 0.89092 -0.00162
 N1087 N -0.02170 0.87958 -0.00550
 N1088 N -0.01835 0.86678 0.00478
 C1089 C -0.02333 0.85052 0.03041
 N1090 N -0.01262 0.83826 0.02519
 N1091 N -0.00930 0.82506 0.03495
 C1092 C -0.01647 0.82365 0.05036
 N1093 N -0.02714 0.83595 0.05566
 N1094 N -0.03054 0.84914 0.04584
 C1095 C -0.01295 0.80875 0.06073
 N1096 N -0.01824 0.80772 0.07693
 N1097 N -0.01508 0.79397 0.08605
 C1098 C -0.00662 0.78072 0.07926
 N1099 N -0.00135 0.78185 0.06308
 N1100 N -0.00440 0.79558 0.05402
 C1101 C 0.02646 0.63411 0.02101
 N1102 N 0.01809 0.63227 0.00624
 N1103 N 0.02122 0.61919 -0.00373
 C1104 C 0.03291 0.60748 0.00063
 N1105 N 0.04132 0.60929 0.01540
 N1106 N 0.03813 0.62236 0.02544
 C1107 C 0.02304 0.64878 0.03173
 N1108 N 0.02981 0.65008 0.04737
 N1109 N 0.02662 0.66353 0.05691
 C1110 C 0.01663 0.67617 0.05109
 N1111 N 0.00994 0.67485 0.03545
 N1112 N 0.01304 0.66140 0.02598
 C1113 C 0.01322 0.69124 0.06124
 N1114 N 0.00525 0.70459 0.05417
 N1115 N 0.00217 0.71842 0.06309
 C1116 C 0.00686 0.71946 0.07946
 N1117 N 0.01477 0.70603 0.08659
 N1118 N 0.01794 0.69219 0.07762
 C1119 C 0.52713 0.13542 0.51966
 N1120 N 0.51845 0.13349 0.50509
 N1121 N 0.52179 0.12068 0.49484
 C1122 C 0.53401 0.10935 0.49872
 N1123 N 0.54274 0.11126 0.51330
 N1124 N 0.53934 0.12406 0.52361
 C1125 C 0.52343 0.14976 0.53071
 N1126 N 0.53059 0.15109 0.54617
 N1127 N 0.52719 0.16427 0.55600
 C1128 C 0.51657 0.17661 0.55066
 N1129 N 0.50946 0.17525 0.53521
 N1130 N 0.51278 0.16207 0.52545
 C1131 C 0.51302 0.19145 0.56108
 N1132 N 0.50448 0.20464 0.55439
 N1133 N 0.50138 0.21832 0.56350
 C1134 C 0.50659 0.21937 0.57972
 N1135 N 0.51504 0.20609 0.58649
 N1136 N 0.51824 0.19239 0.57731
 C1137 C -0.02698 0.13574 0.47992
 N1138 N -0.03945 0.12461 0.47613
 N1139 N -0.04287 0.11180 0.48642
 C1140 C -0.03389 0.10963 0.50081
 N1141 N -0.02140 0.12072 0.50454
 N1142 N -0.01804 0.13355 0.49431
 C1143 C -0.02329 0.15013 0.46891
 N1144 N -0.01248 0.16232 0.47411
 N1145 N -0.00931 0.17563 0.46446
 C1146 C -0.01674 0.17722 0.44917
 N1147 N -0.02746 0.16496 0.44386
 N1148 N -0.03071 0.15167 0.45359
 C1149 C -0.01339 0.19220 0.43887
 N1150 N -0.01874 0.19322 0.42268
 N1151 N -0.01567 0.20699 0.41356
 C1152 C -0.00725 0.22028 0.42035
 N1153 N -0.00193 0.21917 0.43653
 N1154 N -0.00489 0.20541 0.44559
 C1155 C 0.47319 0.63533 0.97999
 N1156 N 0.46084 0.62412 0.97610
 N1157 N 0.45738 0.61132 0.98640
 C1158 C 0.46620 0.60928 1.00092
 N1159 N 0.47853 0.62049 1.00477
 N1160 N 0.48192 0.63330 0.99453
 C1161 C 0.47698 0.64964 0.96891
 N1162 N 0.48780 0.66183 0.97408
 N1163 N 0.49107 0.67505 0.96434
 C1164 C 0.48375 0.67655 0.94900
 N1165 N 0.47302 0.66429 0.94372
 N1166 N 0.46967 0.65108 0.95352
 C1167 C 0.48718 0.69148 0.93866
 N1168 N 0.48175 0.69257 0.92249
 N1169 N 0.48489 0.70633 0.91338
 C1170 C 0.49347 0.71953 0.92014
 N1171 N 0.49888 0.71834 0.93629
 N1172 N 0.49584 0.70460 0.94534
 C1173 C 0.52717 0.86474 0.98025
 N1174 N 0.53949 0.87600 0.97639
 N1175 N 0.54293 0.88878 0.98671
 C1176 C 0.53414 0.89076 1.00122
 N1177 N 0.52182 0.87953 1.00504
 N1178 N 0.51843 0.86674 0.99477
 C1179 C 0.52341 0.85044 0.96916
 N1180 N 0.51260 0.83824 0.97432
 N1181 N 0.50930 0.82505 0.96455
 C1182 C 0.51658 0.82360 0.94919
 N1183 N 0.52731 0.83586 0.94394
 N1184 N 0.53070 0.84904 0.95378
 C1185 C 0.51308 0.80873 0.93880
 N1186 N 0.51841 0.80772 0.92261
 N1187 N 0.51525 0.79399 0.91346
 C1188 C 0.50676 0.78074 0.92022
 N1189 N 0.50144 0.78186 0.93639
 N1190 N 0.50449 0.79557 0.94547
 C1191 C 0.02692 0.36546 0.47997
 N1192 N 0.01803 0.36758 0.49439
 N1193 N 0.02152 0.38028 0.50473
 C1194 C 0.03410 0.39130 0.50110
 N1195 N 0.04304 0.38918 0.48670
 N1196 N 0.03950 0.37649 0.47629
 C1197 C 0.02306 0.35122 0.46882
 N1198 N 0.03061 0.34962 0.45358
 N1199 N 0.02720 0.33644 0.44374
 C1200 C 0.01617 0.32438 0.44886
 N1201 N 0.00863 0.32603 0.46407
 N1202 N 0.01196 0.33922 0.47383
 C1203 C 0.01264 0.30950 0.43849
 N1204 N 0.00373 0.29652 0.44509
 N1205 N 0.00067 0.28278 0.43605
 C1206 C 0.00627 0.28146 0.41999
 N1207 N 0.01507 0.29454 0.41329
 N1208 N 0.01825 0.30830 0.42240
 C1209 C 0.36539 0.51925 0.47334
 N1210 N 0.36739 0.50453 0.48178
 N1211 N 0.38019 0.49426 0.47818
 C1212 C 0.39140 0.49830 0.46595
 N1213 N 0.38942 0.51302 0.45750
 N1214 N 0.37666 0.52334 0.46115
 C1215 C 0.35107 0.53034 0.47716
 N1216 N 0.34973 0.54584 0.47003
 N1217 N 0.33653 0.55571 0.47340
 C1218 C 0.32417 0.55038 0.48396
 N1219 N 0.32554 0.53490 0.49106
 N1220 N 0.33876 0.52509 0.48777
 C1221 C 0.30925 0.56078 0.48739
 N1222 N 0.29599 0.55404 0.49579
 N1223 N 0.28219 0.56312 0.49873
 C1224 C 0.28110 0.57935 0.49347
 N1225 N 0.29444 0.58618 0.48516
 N1226 N 0.30826 0.57703 0.48212
 C1227 C 0.86532 0.01959 -0.02694
 N1228 N 0.86759 0.00505 -0.01825
 N1229 N 0.88044 -0.00515 -0.02181
 C1230 C 0.89145 -0.00125 -0.03427
 N1231 N 0.88920 0.01330 -0.04297
 N1232 N 0.87638 0.02355 -0.03935
 C1233 C 0.85094 0.03059 -0.02312
 N1234 N 0.84937 0.04596 -0.03046
 N1235 N 0.83613 0.05577 -0.02705
 C1236 C 0.82397 0.05049 -0.01624
 N1237 N 0.82555 0.03512 -0.00895
 N1238 N 0.83881 0.02538 -0.01228
 C1239 C 0.80903 0.06083 -0.01274
 N1240 N 0.79589 0.05410 -0.00415
 N1241 N 0.78207 0.06314 -0.00117
 C1242 C 0.78085 0.07931 -0.00657
 N1243 N 0.79408 0.08613 -0.01506
 N1244 N 0.80791 0.07703 -0.01815
 C1245 C 0.63509 0.01935 0.02663
 N1246 N 0.63294 0.00473 0.01804
 N1247 N 0.62012 -0.00550 0.02162
 C1248 C 0.60903 -0.00155 0.03399
 N1249 N 0.61117 0.01306 0.04260
 N1250 N 0.62396 0.02334 0.03896
 C1251 C 0.64941 0.03041 0.02278
 N1252 N 0.65086 0.04584 0.03003
 N1253 N 0.66405 0.05571 0.02662
 C1254 C 0.67629 0.05043 0.01589
 N1255 N 0.67482 0.03502 0.00867
 N1256 N 0.66161 0.02522 0.01201
 C1257 C 0.69120 0.06082 0.01240
 N1258 N 0.70437 0.05409 0.00386
 N1259 N 0.71818 0.06314 0.00089
 C1260 C 0.71936 0.07932 0.00624
 N1261 N 0.70609 0.08615 0.01468
 N1262 N 0.69227 0.07704 0.01776
 C1263 C 0.13491 0.51995 0.52616
 N1264 N 0.12369 0.52406 0.53838
 N1265 N 0.11093 0.51376 0.54209
 C1266 C 0.10892 0.49902 0.53367
 N1267 N 0.12010 0.49496 0.52141
 N1268 N 0.13289 0.50521 0.51776
 C1269 C 0.14925 0.53099 0.52229
 N1270 N 0.16157 0.52566 0.51172
 N1271 N 0.17484 0.53540 0.50845
 C1272 C 0.17625 0.55089 0.51552
 N1273 N 0.16388 0.55630 0.52603
 N1274 N 0.15063 0.54650 0.52938
 C1275 C 0.19123 0.56121 0.51210
 N1276 N 0.19226 0.57750 0.51724
 N1277 N 0.20615 0.58654 0.51422
 C1278 C 0.21952 0.57956 0.50606
 N1279 N 0.21836 0.56330 0.50091
 N1280 N 0.20450 0.55433 0.50383
 C1281 C 0.13529 0.47964 -0.02932
 N1282 N 0.12765 0.48779 -0.01640
 N1283 N 0.11497 0.49846 -0.01929
 C1284 C 0.10937 0.50118 -0.03518
 N1285 N 0.11694 0.49293 -0.04808
 N1286 N 0.12976 0.48245 -0.04521
 C1287 C 0.14960 0.46832 -0.02625
 N1288 N 0.16123 0.46556 -0.03847
 N1289 N 0.17455 0.45571 -0.03560
 C1290 C 0.17657 0.44801 -0.02050
 N1291 N 0.16484 0.45060 -0.00833
 N1292 N 0.15165 0.46068 -0.01112
 C1293 C 0.19156 0.43768 -0.01722
 N1294 N 0.19104 0.42485 -0.00594
 N1295 N 0.20485 0.41579 -0.00274
 C1296 C 0.21970 0.41945 -0.01052
 N1297 N 0.22019 0.43230 -0.02177
 N1298 N 0.20633 0.44117 -0.02516
 C1299 C 0.63491 0.98072 0.47323
 N1300 N 0.62379 0.97680 0.46084
 N1301 N 0.61096 0.98707 0.45728
 C1302 C 0.60877 1.00160 0.46602
 N1303 N 0.61983 1.00547 0.47846
 N1304 N 0.63269 0.99524 0.48197
 C1305 C 0.64930 0.96968 0.47698
 N1306 N 0.66148 0.97485 0.48781
 N1307 N 0.67473 0.96507 0.49109
 C1308 C 0.67626 0.94972 0.48377
 N1309 N 0.66405 0.94448 0.47298
 N1310 N 0.65081 0.95432 0.46962
 C1311 C 0.69121 0.93934 0.48723
 N1312 N 0.69229 0.92314 0.48183
 N1313 N 0.70612 0.91403 0.48489
 C1314 C 0.71939 0.92085 0.49335
 N1315 N 0.71820 0.93702 0.49875
 N1316 N 0.70438 0.94606 0.49580
 C1317 C 0.86534 0.98078 0.52604
 N1318 N 0.86728 0.99551 0.51759
 N1319 N 0.88004 1.00582 0.52118
 C1320 C 0.89128 1.00183 0.53343
 N1321 N 0.88936 0.98711 0.54189
 N1322 N 0.87662 0.97675 0.53824
 C1323 C 0.85103 0.96967 0.52223
 N1324 N 0.84975 0.95416 0.52934
 N1325 N 0.83652 0.94429 0.52602
 C1326 C 0.82410 0.94964 0.51552
 N1327 N 0.82542 0.96513 0.50843
 N1328 N 0.83866 0.97493 0.51168
 C1329 C 0.80915 0.93926 0.51211
 N1330 N 0.79585 0.94608 0.50382
 N1331 N 0.78202 0.93705 0.50089
 C1332 C 0.78093 0.92079 0.50605
 N1333 N 0.79433 0.91388 0.51424
 N1334 N 0.80818 0.92297 0.51728
 C1335 C 0.36436 0.48148 0.02586
 N1336 N 0.37540 0.47739 0.03827
 N1337 N 0.38823 0.48758 0.04204
 C1338 C 0.39052 0.50221 0.03350
 N1339 N 0.37948 0.50629 0.02109
 N1340 N 0.36662 0.49614 0.01737
 C1341 C 0.35013 0.47036 0.02168
 N1342 N 0.33822 0.47543 0.01051
 N1343 N 0.32517 0.46552 0.00680
 C1344 C 0.32359 0.45013 0.01404
 N1345 N 0.33557 0.44498 0.02514
 N1346 N 0.34860 0.45493 0.02891
 C1347 C 0.30883 0.43958 0.01020
 N1348 N 0.30760 0.42354 0.01603
 N1349 N 0.29393 0.41429 0.01274
 C1350 C 0.28096 0.42076 0.00358
 N1351 N 0.28229 0.43677 -0.00228
 N1352 N 0.29596 0.44597 0.00092
 C1353 C 0.52016 0.47230 0.36457
 N1354 N 0.50550 0.48091 0.36667
 N1355 N 0.49531 0.47745 0.37951
 C1356 C 0.49935 0.46518 0.39067
 N1357 N 0.51399 0.45651 0.38856
 N1358 N 0.52423 0.46003 0.37574
 C1359 C 0.53118 0.47610 0.35023
 N1360 N 0.54669 0.46891 0.34876
 N1361 N 0.55647 0.47229 0.33554
 C1362 C 0.55102 0.48291 0.32331
 N1363 N 0.53554 0.49009 0.32483
 N1364 N 0.52582 0.48679 0.33806
 C1365 C 0.56135 0.48641 0.30839
 N1366 N 0.55449 0.49491 0.29529
 N1367 N 0.56350 0.49796 0.28154
 C1368 C 0.57979 0.49274 0.28033
 N1369 N 0.58673 0.48432 0.29352
 N1370 N 0.57765 0.48115 0.30728
 C1371 C 0.02020 -0.02724 0.86414
 N1372 N 0.00552 -0.01865 0.86621
 N1373 N -0.00471 -0.02216 0.87900
 C1374 C -0.00070 -0.03446 0.89013
 N1375 N 0.01396 -0.04311 0.88805
 N1376 N 0.02425 -0.03954 0.87528
 C1377 C 0.03127 -0.02338 0.84986
 N1378 N 0.04680 -0.03054 0.84844
 N1379 N 0.05661 -0.02713 0.83525
 C1380 C 0.05117 -0.01652 0.82301
 N1381 N 0.03567 -0.00937 0.82448
 N1382 N 0.02593 -0.01269 0.83768
 C1383 C 0.06152 -0.01303 0.80811
 N1384 N 0.05467 -0.00458 0.79498
 N1385 N 0.06371 -0.00154 0.78125
 C1386 C 0.08001 -0.00675 0.78008
 N1387 N 0.08694 -0.01513 0.79330
 N1388 N 0.07783 -0.01827 0.80705
 C1389 C 0.02008 0.02759 0.63498
 N1390 N 0.02414 0.03988 0.62382
 N1391 N 0.01386 0.04345 0.61103
 C1392 C -0.00081 0.03483 0.60893
 N1393 N -0.00482 0.02252 0.62005
 N1394 N 0.00541 0.01900 0.63286
 C1395 C 0.03111 0.02377 0.64931
 N1396 N 0.02579 0.01305 0.66147
 N1397 N 0.03554 0.00973 0.67469
 C1398 C 0.05102 0.01691 0.67622
 N1399 N 0.05642 0.02757 0.66402
 N1400 N 0.04662 0.03098 0.65081
 C1401 C 0.06140 0.01338 0.69111
 N1402 N 0.07771 0.01862 0.69219
 N1403 N 0.08686 0.01542 0.70591
 C1404 C 0.07998 0.00697 0.71909
 N1405 N 0.06368 0.00175 0.71791
 N1406 N 0.05460 0.00484 0.70420
 C1407 C 0.51999 0.52677 0.13498
 N1408 N 0.52409 0.53905 0.12384
 N1409 N 0.51388 0.54260 0.11099
 C1410 C 0.49925 0.53395 0.10880
 N1411 N 0.49518 0.52165 0.11990
 N1412 N 0.50534 0.51815 0.13278
 C1413 C 0.53097 0.52298 0.14937
 N1414 N 0.52562 0.51229 0.16154
 N1415 N 0.53534 0.50898 0.17478
 C1416 C 0.55083 0.51614 0.17633
 N1417 N 0.55626 0.52678 0.16412
 N1418 N 0.54648 0.53017 0.15089
 C1419 C 0.56119 0.51262 0.19123
 N1420 N 0.57752 0.51781 0.19229
 N1421 N 0.58665 0.51466 0.20604
 C1422 C 0.57974 0.50629 0.21926
 N1423 N 0.56344 0.50110 0.21809
 N1424 N 0.55437 0.50415 0.20436
 C1425 C 0.47993 -0.02728 0.13526
 N1426 N 0.47587 -0.03953 0.12407
 N1427 N 0.48614 -0.04304 0.11127
 C1428 C 0.50078 -0.03438 0.10918
 N1429 N 0.50479 -0.02210 0.12035
 N1430 N 0.49458 -0.01865 0.13317
 C1431 C 0.46889 -0.02349 0.14958
 N1432 N 0.47423 -0.01284 0.16180
 N1433 N 0.46447 -0.00954 0.17500
 C1434 C 0.44896 -0.01666 0.17644
 N1435 N 0.44353 -0.02725 0.16418
 N1436 N 0.45335 -0.03064 0.15099
 C1437 C 0.43858 -0.01316 0.19132
 N1438 N 0.42225 -0.01835 0.19235
 N1439 N 0.41312 -0.01517 0.20609
 C1440 C 0.42004 -0.00680 0.21931
 N1441 N 0.43635 -0.00164 0.21817
 N1442 N 0.44542 -0.00471 0.20446
 C1443 C 0.98018 0.47319 0.63521
 N1444 N 0.97618 0.46085 0.62409
 N1445 N 0.98645 0.45731 0.61131
 C1446 C 1.00105 0.46602 0.60917
 N1447 N 1.00501 0.47839 0.62025
 N1448 N 0.99479 0.48187 0.63306
 C1449 C 0.96914 0.47696 0.64953
 N1450 N 0.97439 0.48775 0.66167
 N1451 N 0.96464 0.49103 0.67488
 C1452 C 0.94922 0.48373 0.67642
 N1453 N 0.94388 0.47300 0.66423
 N1454 N 0.95369 0.46965 0.65104
 C1455 C 0.93886 0.48717 0.69133
 N1456 N 0.92260 0.48179 0.69245
 N1457 N 0.91351 0.48486 0.70623
 C1458 C 0.92039 0.49332 0.71941
 N1459 N 0.93663 0.49868 0.71819
 N1460 N 0.94566 0.49572 0.70443
 C1461 C 0.98149 0.52828 0.86367
 N1462 N 0.99668 0.52051 0.86522
 N1463 N 1.00704 0.52435 0.87782
 C1464 C 1.00264 0.53619 0.88931
 N1465 N 0.98747 0.54403 0.88774
 N1466 N 0.97706 0.54013 0.87515
 C1467 C 0.97024 0.52402 0.84962
 N1468 N 0.95443 0.53063 0.84852
 N1469 N 0.94444 0.52688 0.83554
 C1470 C 0.94995 0.51644 0.82319
 N1471 N 0.96572 0.50982 0.82434
 N1472 N 0.97565 0.51350 0.83733
 C1473 C 0.93940 0.51267 0.80847
 N1474 N 0.94617 0.50423 0.79529
 N1475 N 0.93700 0.50111 0.78164
 C1476 C 0.92066 0.50621 0.78060
 N1477 N 0.91380 0.51452 0.79388
 N1478 N 0.92303 0.51775 0.80755
 C1479 C 0.47980 0.02743 0.36448
 N1480 N 0.47578 0.03977 0.37560
 N1481 N 0.48612 0.04340 0.38832
 C1482 C 0.50081 0.03479 0.39039
 N1483 N 0.50479 0.02246 0.37929
 N1484 N 0.49451 0.01888 0.36655
 C1485 C 0.46872 0.02353 0.35021
 N1486 N 0.47404 0.01278 0.33808
 N1487 N 0.46431 0.00943 0.32487
 C1488 C 0.44883 0.01662 0.32332
 N1489 N 0.44341 0.02729 0.33552
 N1490 N 0.45321 0.03071 0.34872
 C1491 C 0.43849 0.01314 0.30840
 N1492 N 0.42218 0.01840 0.30730
 N1493 N 0.41309 0.01527 0.29352
 C1494 C 0.42002 0.00689 0.28032
 N1495 N 0.43630 0.00166 0.28153
 N1496 N 0.44534 0.00467 0.29529
   
