data_POSCAR
  _audit_creation_date              2014-09-24
  _audit_creation_method            'ToBaCCo'
  _symmetry_space_group_name_H-M    'P1'
  _symmetry_Int_Tables_number       1
  _symmetry_cell_setting            triclinic
  loop_
  _symmetry_equiv_pos_as_xyz
 x,y,z
_cell_length_a 49.5439
_cell_length_b 49.9581
_cell_length_c 50.1752
_cell_angle_alpha 89.592700
_cell_angle_beta 89.976500
_cell_angle_gamma 87.303800
loop_
  _atom_site_label
  _atom_site_type_symbol
  _atom_site_fract_x
  _atom_site_fract_y
  _atom_site_fract_z
C1 C 0.12580 -0.00141 0.26171
 C2 C 0.37504 0.00095 0.74557
 C3 C 0.88288 0.49373 0.24187
 C4 C 0.62583 0.50184 0.76114
 C5 C 0.24808 0.12357 0.99494
 C6 C 0.75580 0.37471 0.99691
 C7 C 0.26044 0.87392 0.50442
 C8 C 0.74688 0.62520 0.49099
 C9 C 0.00292 0.25014 0.11867
 C10 C -0.00415 0.74121 0.37980
 C11 C 0.50568 0.26049 0.87209
 C12 C 0.48866 0.75935 0.61930
 C13 C 0.87515 0.99328 0.76090
 C14 C 0.38195 0.48873 0.25905
 C15 C 0.62793 1.00581 0.24294
 C16 C 0.12406 0.51201 0.73862
 C17 C 0.75658 0.87650 -0.00845
 C18 C 0.25808 0.37308 0.49677
 C19 C 0.24184 0.62978 0.00742
 C20 C 0.75234 0.12226 0.49647
 C21 C 0.98958 0.75521 0.87817
 C22 C 0.50133 0.25978 0.37706
 C23 C 1.00572 0.24015 0.63063
 C24 C 0.49591 0.75631 0.12146
 O25 O 0.07251 1.03580 1.00225
 O26 O 0.05384 1.04009 0.95801
 O27 O 0.00502 1.05948 1.05105
 O28 O -0.03555 1.04575 1.06096
 O29 O 0.05580 0.98728 1.06908
 O30 O 0.05554 0.94255 1.05124
 O31 O -0.06900 0.99147 0.98558
 O32 O -0.06613 1.03722 0.99927
 O33 O -0.00540 0.97761 0.93204
 O34 O 0.04394 0.97876 0.93463
 O35 O -0.02032 0.92310 0.99744
 O36 O -0.00876 0.92326 1.04475
 O37 O -0.05895 0.95440 1.01079
 O38 O -0.03848 0.94960 1.05698
 O39 O 0.00078 0.93470 0.95907
 O40 O 0.05033 0.94475 0.95580
 O41 O -0.04190 1.00342 0.94557
 O42 O -0.04327 1.04803 0.96310
 O43 O 0.08409 0.99700 1.02436
 O44 O 0.07840 0.95045 1.01697
 O45 O 0.02029 1.01540 1.08031
 O46 O -0.02841 1.00731 1.07938
 O47 O 0.03114 1.06791 1.01500
 O48 O 0.02157 1.06641 0.96873
 Zr49 Zr 0.03149 1.03258 0.99298
 O50 O 0.00548 1.01215 0.96827
 Zr51 Zr -0.00453 1.01905 1.04667
 O52 O -0.03236 0.99781 1.02437
 Zr53 Zr 0.04713 0.97800 1.02891
 O54 O 0.02153 0.95486 1.00557
 Zr55 Zr -0.03339 1.01253 0.98518
 O56 O -0.00814 1.03609 1.00828
 Zr57 Zr 0.01786 0.97145 0.96701
 O58 O 0.04611 0.99257 0.98937
 Zr59 Zr -0.01797 0.95766 1.02098
 O60 O 0.00834 0.97828 1.04612
 O61 O 0.03464 1.01821 1.03179
 O62 O -0.02130 0.97226 0.98205
 C63 C 0.08976 1.01958 1.01374
 C64 C 0.01917 1.07501 1.03665
 C65 C 0.04264 1.00245 1.08573
 C66 C -0.07520 0.96920 0.99640
 C67 C -0.02804 0.99059 0.92786
 C68 C -0.01318 0.91890 0.97319
 H69 H 0.00569 1.02071 0.95047
 H70 H 0.02863 0.93606 1.00509
 H71 H 0.04688 1.02887 1.04259
 H72 H -0.05045 0.99942 1.03268
 H73 H -0.05824 1.05240 1.00862
 H74 H -0.05235 1.04163 1.05152
 H75 H 0.04977 0.92848 0.96709
 H76 H 0.08099 0.95346 0.99764
 H77 H -0.02888 1.05048 0.94977
 H78 H 0.00322 1.07299 0.97409
 H79 H 0.00870 0.91518 1.03851
 H80 H 0.03997 0.94048 1.06334
 H81 H 0.06588 1.02402 0.95496
 H82 H 0.03950 0.99719 0.92813
 H83 H -0.02098 0.98959 1.08553
 H84 H -0.05342 0.96329 1.05893
 O85 O 0.56579 0.54707 0.50770
 O86 O 0.54902 0.54876 0.46285
 O87 O 0.49442 0.56803 0.55308
 O88 O 0.45462 0.55251 0.56118
 O89 O 0.54805 0.49936 0.57547
 O90 O 0.55270 0.45474 0.55934
 O91 O 0.42837 0.49310 0.48727
 O92 O 0.42800 0.53976 0.49774
 O93 O 0.49411 0.47809 0.43807
 O94 O 0.54306 0.48621 0.44056
 O95 O 0.48094 0.42851 0.50324
 O96 O 0.49005 0.43139 0.55150
 O97 O 0.43962 0.45759 0.51420
 O98 O 0.45754 0.45542 0.56056
 O99 O 0.50696 0.43809 0.46749
 O100 O 0.55306 0.45465 0.46376
 O101 O 0.45651 0.50416 0.44722
 O102 O 0.45212 0.55008 0.46256
 O103 O 0.57794 0.51013 0.53244
 O104 O 0.57603 0.46285 0.52595
 O105 O 0.51039 0.52528 0.58500
 O106 O 0.46249 0.51504 0.58110
 O107 O 0.52028 0.57736 0.51705
 O108 O 0.51489 0.57301 0.47062
 Zr109 Zr 0.52544 0.54097 0.49692
 O110 O 0.50226 0.51765 0.47177
 Zr111 Zr 0.48778 0.52701 0.54954
 O112 O 0.46267 0.50328 0.52660
 Zr113 Zr 0.54251 0.48877 0.53550
 O114 O 0.51990 0.46298 0.51226
 Zr115 Zr 0.46272 0.51614 0.48670
 O116 O 0.48504 0.54215 0.51024
 Zr117 Zr 0.51743 0.47779 0.47303
 O118 O 0.54282 0.50180 0.49558
 Zr119 Zr 0.47964 0.46391 0.52562
 O120 O 0.50318 0.48710 0.55105
 O121 O 0.52751 0.52836 0.53647
 O122 O 0.47756 0.47647 0.48595
 C123 C 0.58320 0.53225 0.52074
 C124 C 0.50686 0.58426 0.53796
 C125 C 0.53285 0.51310 0.59155
 C126 C 0.42305 0.47099 0.49896
 C127 C 0.47108 0.48921 0.43165
 C128 C 0.49248 0.42232 0.48107
 H129 H 0.50262 0.52512 0.45350
 H130 H 0.52840 0.44470 0.51303
 H131 H 0.53835 0.54018 0.54757
 H132 H 0.44416 0.50412 0.53402
 H133 H 0.43446 0.55566 0.50706
 H134 H 0.43885 0.54742 0.55060
 H135 H 0.55574 0.44073 0.47775
 H136 H 0.58110 0.46711 0.50737
 H137 H 0.46636 0.55202 0.44897
 H138 H 0.49560 0.57790 0.47394
 H139 H 0.50751 0.42316 0.54542
 H140 H 0.53645 0.45115 0.57005
 H141 H 0.56104 0.53263 0.46004
 H142 H 0.53625 0.50322 0.43225
 H143 H 0.47040 0.49790 0.58826
 H144 H 0.44238 0.46895 0.56192
 O145 O 0.43679 -0.03437 0.48394
 O146 O 0.45966 -0.04048 0.44261
 O147 O 0.49857 -0.05528 0.54082
 O148 O 0.53853 -0.04197 0.55317
 O149 O 0.44745 0.01641 0.55032
 O150 O 0.44645 0.05961 0.53169
 O151 O 0.57820 0.01217 0.47584
 O152 O 0.57626 -0.03273 0.49062
 O153 O 0.52022 0.02830 0.42168
 O154 O 0.47362 0.02422 0.41617
 O155 O 0.52690 0.07986 0.48635
 O156 O 0.51493 0.07907 0.53230
 O157 O 0.56591 0.04935 0.49952
 O158 O 0.54353 0.05170 0.54620
 O159 O 0.50527 0.07035 0.44789
 O160 O 0.45800 0.05350 0.43969
 O161 O 0.55421 -0.00078 0.43501
 O162 O 0.55313 -0.04650 0.45558
 O163 O 0.42352 0.00339 0.50632
 O164 O 0.42916 0.05107 0.49494
 O165 O 0.48107 -0.01106 0.56750
 O166 O 0.53131 -0.00209 0.56846
 O167 O 0.47616 -0.06517 0.50283
 O168 O 0.49259 -0.06473 0.45697
 Zr169 Zr 0.47855 -0.03081 0.47882
 O170 O 0.50555 -0.00962 0.45538
 Zr171 Zr 0.50920 -0.01544 0.53539
 O172 O 0.53896 0.00489 0.51393
 Zr173 Zr 0.45915 0.02430 0.51137
 O174 O 0.48648 0.04766 0.49084
 Zr175 Zr 0.54308 -0.00967 0.47478
 O176 O 0.51666 -0.03302 0.49760
 Zr177 Zr 0.49271 0.03099 0.45305
 O178 O 0.46332 0.00884 0.47274
 Zr179 Zr 0.52483 0.04484 0.50906
 O180 O 0.49601 0.02505 0.53230
 O181 O 0.47186 -0.01549 0.51673
 O182 O 0.53074 0.03055 0.47054
 C183 C 0.41875 -0.01914 0.49538
 C184 C 0.48525 -0.07105 0.52621
 C185 C 0.45803 0.00204 0.56917
 C186 C 0.58311 0.03502 0.48588
 C187 C 0.54267 0.01511 0.41773
 C188 C 0.51799 0.08612 0.46305
 H189 H 0.50691 -0.01784 0.43755
 H190 H 0.47889 0.06631 0.49000
 H191 H 0.45877 -0.02582 0.52697
 H192 H 0.55651 0.00346 0.52332
 H193 H 0.56859 -0.04705 0.50161
 H194 H 0.55566 -0.03953 0.54354
 H195 H 0.45585 0.06963 0.45097
 H196 H 0.42389 0.04357 0.47760
 H197 H 0.54165 -0.04764 0.43955
 H198 H 0.50911 -0.07200 0.46607
 H199 H 0.49684 0.08604 0.52654
 H200 H 0.46115 0.06350 0.54424
 H201 H 0.44915 -0.02414 0.43676
 H202 H 0.47549 0.00477 0.41269
 H203 H 0.52187 0.01454 0.57487
 H204 H 0.56062 0.04066 0.54704
 O205 O -0.06053 0.45564 0.98425
 O206 O -0.04248 0.45375 0.94038
 O207 O 0.00867 0.43243 1.03214
 O208 O 0.05005 0.44608 1.03888
 O209 O -0.04203 0.50188 1.05409
 O210 O -0.04711 0.54609 1.03774
 O211 O 0.07917 0.50561 0.96855
 O212 O 0.07694 0.45921 0.97630
 O213 O 0.01368 0.52623 0.91778
 O214 O -0.03460 0.51861 0.91821
 O215 O 0.02630 0.57281 0.98387
 O216 O 0.01764 0.56834 1.03158
 O217 O 0.06724 0.54210 0.99353
 O218 O 0.04931 0.54330 1.04031
 O219 O -0.00044 0.56535 0.94821
 O220 O -0.04654 0.54756 0.94332
 O221 O 0.05024 0.49845 0.92675
 O222 O 0.05360 0.45216 0.94037
 O223 O -0.07168 0.49084 1.01120
 O224 O -0.06956 0.53873 1.00365
 O225 O -0.00533 0.47444 1.06339
 O226 O 0.04281 0.48316 1.06016
 O227 O -0.01762 0.42424 0.99626
 O228 O -0.00794 0.42912 0.94920
 Zr229 Zr -0.01971 0.46082 0.97503
 O230 O 0.00394 0.48477 0.95050
 Zr231 Zr 0.01751 0.47293 1.02814
 O232 O 0.04325 0.49675 1.00581
 Zr233 Zr -0.03639 0.51250 1.01394
 O234 O -0.01302 0.53859 0.99153
 Zr235 Zr 0.04340 0.48489 0.96577
 O236 O 0.02047 0.45853 0.98880
 Zr237 Zr -0.01038 0.52498 0.95213
 O238 O -0.03636 0.50042 0.97388
 Zr239 Zr 0.02715 0.53644 1.00513
 O240 O 0.00283 0.51306 1.02997
 O241 O -0.02206 0.47278 1.01459
 O242 O 0.02951 0.52501 0.96534
 C243 C -0.07743 0.46949 0.99861
 C244 C -0.00539 0.41695 1.01793
 C245 C -0.02746 0.48710 1.07004
 C246 C 0.08438 0.52762 0.98010
 C247 C 0.03645 0.51465 0.91149
 C248 C 0.01411 0.58044 0.96239
 H249 H 0.00365 0.47798 0.93207
 H250 H -0.02130 0.55693 0.99267
 H251 H -0.03339 0.46123 1.02564
 H252 H 0.06160 0.49522 1.01356
 H253 H 0.06971 0.44329 0.98519
 H254 H 0.06613 0.45163 1.02895
 H255 H -0.04915 0.56137 0.95723
 H256 H -0.07543 0.53357 0.98561
 H257 H 0.03848 0.44995 0.92786
 H258 H 0.01047 0.42279 0.95471
 H259 H 0.00000 0.57671 1.02609
 H260 H -0.03084 0.54993 1.04823
 H261 H -0.05327 0.47054 0.93663
 H262 H -0.02872 0.50114 0.91049
 H263 H 0.03564 0.50057 1.06711
 H264 H 0.06458 0.52983 1.04119
 O265 O 0.01575 0.41030 0.50754
 O266 O 0.00904 0.41445 0.46024
 O267 O 0.06867 0.47574 0.52039
 O268 O 0.06718 0.51988 0.51605
 O269 O 0.00079 0.46401 0.57380
 O270 O -0.04682 0.47362 0.56921
 O271 O -0.00346 0.55112 0.45392
 O272 O 0.04240 0.53249 0.45331
 O273 O -0.05041 0.48471 0.43347
 O274 O -0.05434 0.43945 0.45224
 O275 O -0.07069 0.53496 0.49739
 O276 O -0.05610 0.53620 0.54493
 O277 O -0.02936 0.56184 0.49001
 O278 O -0.02312 0.55704 0.53852
 O279 O -0.08023 0.49950 0.47160
 O280 O -0.07825 0.45033 0.48323
 O281 O -0.01522 0.51097 0.42491
 O282 O 0.03153 0.50086 0.42580
 O283 O -0.01093 0.42133 0.54304
 O284 O -0.05539 0.44073 0.54582
 O285 O 0.03766 0.48716 0.56293
 O286 O 0.03842 0.53287 0.54591
 O287 O 0.05958 0.43899 0.49624
 O288 O 0.04275 0.43625 0.45211
 Zr289 Zr 0.01860 0.44623 0.48566
 O290 O -0.00530 0.47068 0.45967
 Zr291 Zr 0.03212 0.49825 0.52301
 O292 O 0.00899 0.52502 0.49883
 Zr293 Zr -0.02074 0.46242 0.53744
 O294 O -0.04651 0.48743 0.51351
 Zr295 Zr 0.00773 0.51018 0.45991
 O296 O 0.03386 0.48487 0.48335
 Zr297 Zr -0.04519 0.47410 0.47388
 O298 O -0.02195 0.44713 0.49841
 Zr299 Zr -0.03142 0.52597 0.51170
 O300 O -0.00746 0.50174 0.53812
 O301 O 0.01931 0.45926 0.52487
 O302 O -0.03236 0.51327 0.47229
 C303 C 0.00298 0.40429 0.52894
 C304 C 0.07578 0.45343 0.50928
 C305 C 0.02313 0.47477 0.57970
 C306 C -0.01750 0.56794 0.46820
 C307 C -0.03676 0.49953 0.41798
 C308 C -0.08625 0.52258 0.48169
 H309 H -0.00448 0.46283 0.44165
 H310 H -0.06509 0.48781 0.52068
 H311 H 0.03084 0.44727 0.53637
 H312 H 0.01689 0.54281 0.49939
 H313 H 0.05816 0.52133 0.45976
 H314 H 0.06250 0.53386 0.50257
 H315 H -0.08835 0.45885 0.49818
 H316 H -0.05973 0.43124 0.52923
 H317 H 0.02920 0.48186 0.42141
 H318 H 0.05382 0.45187 0.44850
 H319 H -0.07094 0.52365 0.54572
 H320 H -0.04305 0.49238 0.57356
 H321 H -0.00946 0.40946 0.46499
 H322 H -0.03985 0.43618 0.43892
 H323 H 0.02323 0.53481 0.55867
 H324 H -0.00576 0.56445 0.53310
 O325 O 0.57658 0.99211 0.02062
 O326 O 0.57956 1.03626 0.00329
 O327 O 0.50583 1.00132 0.07016
 O328 O 0.46231 1.01487 0.06465
 O329 O 0.51587 0.93290 0.01938
 O330 O 0.50940 0.92680 -0.02718
 O331 O 0.44565 1.06213 -0.01938
 O332 O 0.46032 1.07130 0.02439
 O333 O 0.51844 1.05806 -0.06472
 O334 O 0.56160 1.03103 -0.06090
 O335 O 0.46139 0.99894 -0.07275
 O336 O 0.45025 0.95942 -0.04669
 O337 O 0.43218 1.02371 -0.03823
 O338 O 0.42830 0.97808 -0.01810
 O339 O 0.50114 1.01603 -0.08520
 O340 O 0.54797 0.99817 -0.07744
 O341 O 0.49140 1.08078 -0.03522
 O342 O 0.49765 1.08867 0.01075
 O343 O 0.56348 0.95342 0.00201
 O344 O 0.54570 0.94171 -0.04016
 O345 O 0.48948 0.95597 0.04922
 O346 O 0.44650 0.98128 0.04338
 O347 O 0.54641 1.01663 0.05765
 O348 O 0.55529 1.05581 0.03198
 Zr349 Zr 0.54340 1.01918 0.01587
 O350 O 0.52516 1.04217 -0.01497
 Zr351 Zr 0.48515 0.99529 0.03428
 O352 O 0.46406 1.01765 0.00449
 Zr353 Zr 0.52324 0.96222 -0.01016
 O354 O 0.50374 0.98299 -0.04207
 Zr355 Zr 0.48474 1.05218 -0.00511
 O356 O 0.50398 1.03165 0.02734
 Zr357 Zr 0.52285 1.01891 -0.04949
 O358 O 0.54422 0.99678 -0.01959
 Zr359 Zr 0.46426 0.99546 -0.03099
 O360 O 0.48268 0.97175 -0.00017
 O361 O 0.52486 0.98377 0.02499
 O362 O 0.48295 1.03079 -0.04056
 C363 C 0.58114 0.96785 0.01306
 C364 C 0.52955 1.00930 0.07541
 C365 C 0.50175 0.93436 0.04095
 C366 C 0.42829 1.04838 -0.03161
 C367 C 0.50572 1.07944 -0.05659
 C368 C 0.47755 1.00787 -0.09040
 H369 H 0.53575 1.05818 -0.01803
 H370 H 0.50385 0.97145 -0.05799
 H371 H 0.53443 0.97333 0.03926
 H372 H 0.44555 1.02228 0.01086
 H373 H 0.46861 1.06661 0.04187
 H374 H 0.45029 1.02867 0.05595
 H375 H 0.53887 0.98189 -0.08292
 H376 H 0.55823 0.95468 -0.04763
 H377 H 0.51734 1.08932 0.00786
 H378 H 0.53940 1.06375 0.04155
 H379 H 0.46512 0.95078 -0.05714
 H380 H 0.48985 0.92656 -0.02318
 H381 H 0.58527 1.02687 -0.01323
 H382 H 0.56526 1.04754 -0.05102
 H383 H 0.44354 0.96604 0.03139
 H384 H 0.41974 0.99003 -0.00458
 O385 O 0.42312 0.51710 0.03122
 O386 O 0.42432 0.47029 0.02025
 O387 O 0.49008 0.52433 0.08146
 O388 O 0.53419 0.51992 0.08084
 O389 O 0.47691 0.57972 0.01325
 O390 O 0.48290 0.57537 -0.03307
 O391 O 0.56166 0.45312 0.00894
 O392 O 0.54710 0.45209 0.05289
 O393 O 0.49301 0.43926 -0.03791
 O394 O 0.44958 0.45956 -0.04369
 O395 O 0.54444 0.50319 -0.05597
 O396 O 0.54864 0.54828 -0.03926
 O397 O 0.57211 0.48932 -0.01593
 O398 O 0.56973 0.53876 -0.00622
 O399 O 0.50890 0.47816 -0.06635
 O400 O 0.45836 0.49331 -0.06412
 O401 O 0.51957 0.42728 -0.00250
 O402 O 0.50994 0.43099 0.04606
 O403 O 0.43313 0.55219 0.00447
 O404 O 0.44972 0.55254 -0.04134
 O405 O 0.50231 0.56862 0.04972
 O406 O 0.54843 0.54606 0.05164
 O407 O 0.45361 0.50044 0.07131
 O408 O 0.44863 0.45732 0.05248
 Zr409 Zr 0.45834 0.49199 0.03074
 O410 O 0.48127 0.46512 0.00676
 Zr411 Zr 0.51171 0.52693 0.04548
 O412 O 0.53720 0.50070 0.02297
 Zr413 Zr 0.47351 0.54360 -0.00715
 O414 O 0.49805 0.51925 -0.03237
 Zr415 Zr 0.52141 0.46245 0.02041
 O416 O 0.49786 0.48751 0.04627
 Zr417 Zr 0.48391 0.48032 -0.03226
 O418 O 0.45752 0.50543 -0.00909
 Zr419 Zr 0.53726 0.51476 -0.01655
 O420 O 0.51374 0.54234 0.00649
 O421 O 0.47210 0.53070 0.03231
 O422 O 0.52367 0.47598 -0.01883
 C423 C 0.41705 0.53969 0.01981
 C424 C 0.46832 0.51271 0.08782
 C425 C 0.48927 0.58584 0.03469
 C426 C 0.57805 0.46631 -0.00535
 C427 C 0.50712 0.42190 -0.02419
 C428 C 0.53157 0.48844 -0.07191
 H429 H 0.47275 0.44763 0.00713
 H430 H 0.49809 0.52713 -0.05049
 H431 H 0.46127 0.54284 0.04411
 H432 H 0.55549 0.49956 0.03092
 H433 H 0.53906 0.46104 0.06876
 H434 H 0.54565 0.50347 0.07792
 H435 H 0.46787 0.50670 -0.07474
 H436 H 0.43741 0.53766 -0.04341
 H437 H 0.49370 0.42306 0.03855
 H438 H 0.46446 0.45245 0.06384
 H439 H 0.53441 0.55219 -0.05274
 H440 H 0.50213 0.57887 -0.02989
 H441 H 0.41819 0.47710 0.00258
 H442 H 0.44309 0.45028 -0.02761
 H443 H 0.54980 0.55975 0.03740
 H444 H 0.57922 0.53024 0.00922
 O445 O -0.07233 0.00074 0.53781
 O446 O -0.07328 -0.04399 0.52300
 O447 O -0.00073 -0.00728 0.58927
 O448 O 0.04254 -0.01969 0.58405
 O449 O -0.01186 0.06167 0.53817
 O450 O -0.00653 0.06866 0.49162
 O451 O 0.06072 -0.06594 0.49974
 O452 O 0.04601 -0.07540 0.54384
 O453 O -0.01346 -0.06296 0.45503
 O454 O -0.05580 -0.03527 0.45763
 O455 O 0.04409 -0.00078 0.44680
 O456 O 0.05452 0.03722 0.47250
 O457 O 0.07305 -0.02659 0.48157
 O458 O 0.07560 0.01941 0.50219
 O459 O 0.00524 -0.01930 0.43411
 O460 O -0.04190 -0.00325 0.44063
 O461 O 0.01481 -0.08519 0.48427
 O462 O 0.00936 -0.09392 0.52916
 O463 O -0.05986 0.04060 0.52084
 O464 O -0.04222 0.05306 0.47886
 O465 O 0.01513 0.03880 0.56795
 O466 O 0.05815 0.01379 0.56249
 O467 O -0.04156 -0.02160 0.57643
 O468 O -0.04882 -0.06184 0.55189
 Zr469 Zr -0.03799 -0.02502 0.53483
 O470 O -0.01911 -0.04718 0.50410
 Zr471 Zr 0.01958 -0.00032 0.55338
 O472 O 0.04130 -0.02182 0.52376
 Zr473 Zr -0.01930 0.03265 0.50887
 O474 O 0.00095 0.01278 0.47715
 Zr475 Zr 0.02147 -0.05665 0.51396
 O476 O 0.00159 -0.03700 0.54636
 Zr477 Zr -0.01710 -0.02354 0.46941
 O478 O -0.03920 -0.00234 0.49924
 Zr479 Zr 0.04060 0.00104 0.48845
 O480 O 0.02143 0.02390 0.51902
 O481 O -0.02039 0.01071 0.54407
 O482 O 0.02299 -0.03470 0.47847
 C483 C -0.07756 0.02502 0.53032
 C484 C -0.02462 -0.01489 0.59427
 C485 C 0.00297 0.06036 0.55926
 C486 C 0.07769 -0.05137 0.48777
 C487 C -0.00067 -0.08417 0.46373
 C488 C 0.02833 -0.00974 0.42902
 H489 H -0.02950 -0.06332 0.50126
 H490 H 0.00074 0.02464 0.46131
 H491 H -0.03023 0.02100 0.55813
 H492 H 0.05985 -0.02615 0.53021
 H493 H 0.03696 -0.07183 0.56115
 H494 H 0.05431 -0.03371 0.57557
 H495 H -0.03367 0.01385 0.43609
 H496 H -0.05405 0.03973 0.47108
 H497 H -0.01059 -0.09332 0.52942
 H498 H -0.03316 -0.06875 0.56256
 H499 H 0.03904 0.04673 0.46355
 H500 H 0.01296 0.06950 0.49570
 H501 H -0.07934 -0.03529 0.50612
 H502 H -0.05983 -0.05160 0.46787
 H503 H 0.06087 0.02948 0.55081
 H504 H 0.08528 0.00672 0.51449
 O505 O 0.74891 0.29826 0.18684
 O506 O 0.70523 0.30576 0.20833
 O507 O 0.80394 0.30890 0.25153
 O508 O 0.80945 0.29257 0.29270
 O509 O 0.81480 0.23977 0.20115
 O510 O 0.79215 0.19860 0.19743
 O511 O 0.73715 0.24166 0.32668
 O512 O 0.74923 0.28775 0.32232
 O513 O 0.67656 0.23944 0.26238
 O514 O 0.68029 0.24795 0.21271
 O515 O 0.73890 0.17768 0.27178
 O516 O 0.78781 0.17461 0.25844
 O517 O 0.75882 0.20338 0.31220
 O518 O 0.80015 0.19216 0.29036
 O519 O 0.70179 0.19277 0.24875
 O520 O 0.69472 0.21008 0.20715
 O521 O 0.69232 0.25866 0.29993
 O522 O 0.70963 0.29882 0.30463
 O523 O 0.77175 0.25987 0.17444
 O524 O 0.75897 0.21427 0.17600
 O525 O 0.82975 0.26218 0.23723
 O526 O 0.82805 0.25308 0.28429
 O527 O 0.76673 0.32393 0.22848
 O528 O 0.71978 0.32732 0.23991
 Zr529 Zr 0.74112 0.29181 0.22777
 O530 O 0.71553 0.27107 0.25327
 Zr531 Zr 0.79531 0.26913 0.26112
 O532 O 0.77200 0.24699 0.28759
 Zr533 Zr 0.77345 0.23568 0.20884
 O534 O 0.74878 0.21244 0.23294
 Zr535 Zr 0.73304 0.26500 0.29124
 O536 O 0.75728 0.28920 0.26668
 Zr537 Zr 0.71097 0.23229 0.23856
 O538 O 0.73445 0.25402 0.21131
 Zr539 Zr 0.76530 0.20922 0.27136
 O540 O 0.79172 0.23007 0.24644
 O541 O 0.77948 0.27385 0.22298
 O542 O 0.72660 0.22658 0.27712
 C543 C 0.76130 0.28341 0.16945
 C544 C 0.79015 0.32711 0.23858
 C545 C 0.83346 0.24987 0.21508
 C546 C 0.74903 0.21852 0.33074
 C547 C 0.67328 0.25019 0.28534
 C548 C 0.71559 0.17442 0.26149
 H549 H 0.69814 0.28157 0.25423
 H550 H 0.74701 0.19476 0.22458
 H551 H 0.79139 0.28400 0.21116
 H552 H 0.78162 0.24582 0.30484
 H553 H 0.75712 0.30365 0.31400
 H554 H 0.80036 0.28677 0.30917
 H555 H 0.71011 0.20080 0.19798
 H556 H 0.74083 0.22231 0.17171
 H557 H 0.70508 0.30993 0.28877
 H558 H 0.72762 0.33249 0.25717
 H559 H 0.77818 0.16697 0.24321
 H560 H 0.80421 0.19275 0.21230
 H561 H 0.70089 0.29206 0.19504
 H562 H 0.67253 0.26464 0.22072
 H563 H 0.83304 0.23511 0.27712
 H564 H 0.80817 0.20659 0.30064
 O565 O 0.74630 0.69493 0.68695
 O566 O 0.78435 0.68135 0.71237
 O567 O 0.68472 0.70218 0.74747
 O568 O 0.67700 0.72898 0.78469
 O569 O 0.69089 0.76102 0.68516
 O570 O 0.71730 0.79794 0.67832
 O571 O 0.75802 0.76416 0.81747
 O572 O 0.74265 0.72241 0.82123
 O573 O 0.82144 0.75221 0.75862
 O574 O 0.82352 0.74000 0.71350
 O575 O 0.76882 0.82241 0.75749
 O576 O 0.72660 0.83312 0.74226
 O577 O 0.74274 0.80370 0.79892
 O578 O 0.70138 0.81530 0.76891
 O579 O 0.80468 0.79802 0.74083
 O580 O 0.80835 0.77342 0.69634
 O581 O 0.80139 0.73754 0.79632
 O582 O 0.76923 0.69849 0.80156
 O583 O 0.73537 0.73408 0.66544
 O584 O 0.75291 0.77890 0.66559
 O585 O 0.66802 0.74737 0.72168
 O586 O 0.66728 0.76555 0.76729
 O587 O 0.72020 0.67695 0.73123
 O588 O 0.76614 0.66942 0.74644
 Zr589 Zr 0.75097 0.70473 0.72704
 O590 O 0.77885 0.72444 0.75053
 Zr591 Zr 0.69878 0.74089 0.75071
 O592 O 0.72420 0.76063 0.77704
 Zr593 Zr 0.73113 0.76193 0.69726
 O594 O 0.75641 0.78464 0.72122
 Zr595 Zr 0.75972 0.73720 0.78575
 O596 O 0.73197 0.71567 0.76304
 Zr597 Zr 0.79006 0.76016 0.73194
 O598 O 0.76582 0.73796 0.70641
 Zr599 Zr 0.73804 0.79486 0.75788
 O600 O 0.71090 0.77608 0.73186
 O601 O 0.71700 0.72774 0.71552
 O602 O 0.77305 0.77221 0.76828
 C603 C 0.74213 0.70884 0.66561
 C604 C 0.69597 0.67967 0.74043
 C605 C 0.66908 0.75516 0.69719
 C606 C 0.74988 0.78881 0.81902
 C607 C 0.82237 0.74302 0.78244
 C608 C 0.79369 0.81972 0.75043
 H609 H 0.79452 0.71189 0.75388
 H610 H 0.76156 0.80084 0.71139
 H611 H 0.70503 0.71745 0.70403
 H612 H 0.71363 0.76500 0.79328
 H613 H 0.72324 0.72799 0.82088
 H614 H 0.68895 0.71584 0.79444
 H615 H 0.80173 0.79209 0.69274
 H616 H 0.76988 0.76782 0.66367
 H617 H 0.78641 0.69178 0.79343
 H618 H 0.75640 0.66821 0.76361
 H619 H 0.72779 0.83174 0.72265
 H620 H 0.70551 0.80768 0.69132
 H621 H 0.79442 0.69318 0.70043
 H622 H 0.82384 0.72115 0.71971
 H623 H 0.66545 0.78190 0.75605
 H624 H 0.69516 0.80717 0.78573
 O625 O 0.23693 0.21200 0.81583
 O626 O 0.19633 0.21014 0.79308
 O627 O 0.29396 0.18873 0.75265
 O628 O 0.30484 0.20445 0.71309
 O629 O 0.31153 0.25434 0.80533
 O630 O 0.29498 0.29855 0.80909
 O631 O 0.23538 0.26947 0.67840
 O632 O 0.24355 0.22320 0.67972
 O633 O 0.17829 0.28711 0.73798
 O634 O 0.17606 0.27755 0.78624
 O635 O 0.24803 0.33322 0.73336
 O636 O 0.29435 0.32600 0.74308
 O637 O 0.26153 0.30330 0.69082
 O638 O 0.30682 0.30094 0.71453
 O639 O 0.20815 0.32508 0.75363
 O640 O 0.19922 0.30649 0.79807
 O641 O 0.19097 0.26138 0.70264
 O642 O 0.20610 0.21471 0.70029
 O643 O 0.26309 0.24484 0.83103
 O644 O 0.25803 0.29287 0.82692
 O645 O 0.32420 0.22927 0.76953
 O646 O 0.32533 0.24025 0.72206
 O647 O 0.25447 0.18058 0.77361
 O648 O 0.20821 0.18861 0.76049
 Zr649 Zr 0.23348 0.21832 0.77476
 O650 O 0.21095 0.24485 0.74975
 Zr651 Zr 0.29070 0.23004 0.74400
 O652 O 0.27060 0.25627 0.71659
 Zr653 Zr 0.27141 0.26703 0.79592
 O654 O 0.25133 0.29542 0.77054
 Zr655 Zr 0.23008 0.24649 0.71261
 O656 O 0.25128 0.21776 0.73681
 Zr657 Zr 0.21153 0.28421 0.76406
 O658 O 0.23088 0.25704 0.79131
 Zr659 Zr 0.26861 0.29532 0.73209
 O660 O 0.29104 0.26938 0.75866
 O661 O 0.27327 0.22796 0.78168
 O662 O 0.22846 0.28603 0.72601
 C663 C 0.24788 0.22491 0.83466
 C664 C 0.27745 0.17289 0.76363
 C665 C 0.32922 0.24062 0.79174
 C666 C 0.24850 0.29038 0.67318
 C667 C 0.17371 0.27648 0.71529
 C668 C 0.22482 0.34075 0.74279
 H669 H 0.19232 0.23876 0.74841
 H670 H 0.25189 0.31322 0.77893
 H671 H 0.28296 0.21525 0.79400
 H672 H 0.28006 0.25529 0.69924
 H673 H 0.25260 0.20665 0.68706
 H674 H 0.29609 0.21098 0.69642
 H675 H 0.21345 0.31910 0.80212
 H676 H 0.23886 0.28920 0.83026
 H677 H 0.19122 0.21295 0.71323
 H678 H 0.21536 0.18309 0.74283
 H679 H 0.28976 0.33106 0.76162
 H680 H 0.30717 0.30280 0.79416
 H681 H 0.18978 0.22703 0.80160
 H682 H 0.16732 0.26203 0.77841
 H683 H 0.33193 0.25684 0.72994
 H684 H 0.30882 0.28874 0.69913
 O685 O 0.19848 0.73572 0.31569
 O686 O 0.22090 0.69293 0.31642
 O687 O 0.26481 0.78833 0.32049
 O688 O 0.30130 0.79630 0.29659
 O689 O 0.19960 0.80431 0.26368
 O690 O 0.18868 0.78612 0.22219
 O691 O 0.32463 0.72119 0.23445
 O692 O 0.33208 0.73426 0.27877
 O693 O 0.26403 0.66873 0.23442
 O694 O 0.21975 0.66660 0.25044
 O695 O 0.25879 0.73448 0.18042
 O696 O 0.24878 0.78140 0.18485
 O697 O 0.30558 0.74634 0.20094
 O698 O 0.28264 0.79287 0.20239
 O699 O 0.23850 0.69792 0.19667
 O700 O 0.19847 0.69114 0.22667
 O701 O 0.30319 0.68029 0.25376
 O702 O 0.31382 0.69876 0.29624
 O703 O 0.17693 0.75971 0.28276
 O704 O 0.17198 0.75091 0.23548
 O705 O 0.23938 0.81665 0.28125
 O706 O 0.28449 0.81546 0.26066
 O707 O 0.24507 0.75109 0.33583
 O708 O 0.25759 0.70411 0.33145
 Zr709 Zr 0.23791 0.72819 0.30183
 O710 O 0.25870 0.70348 0.27433
 Zr711 Zr 0.26584 0.78263 0.27875
 O712 O 0.28876 0.76006 0.25051
 Zr713 Zr 0.20757 0.76390 0.25359
 O714 O 0.22806 0.74136 0.22379
 Zr715 Zr 0.29521 0.72050 0.26416
 O716 O 0.27573 0.74399 0.29404
 Zr717 Zr 0.23732 0.70250 0.23830
 O718 O 0.21438 0.72421 0.26729
 Zr719 Zr 0.26613 0.75664 0.21528
 O720 O 0.24399 0.78147 0.24277
 O721 O 0.22896 0.76717 0.28894
 O722 O 0.27459 0.71728 0.22802
 C723 C 0.17736 0.74772 0.30560
 C724 C 0.25602 0.77360 0.33948
 C725 C 0.21474 0.82162 0.27406
 C726 C 0.32535 0.73220 0.21132
 C727 C 0.28840 0.66337 0.24236
 C728 C 0.24662 0.71255 0.17735
 H729 H 0.26149 0.68539 0.28223
 H730 H 0.21625 0.74144 0.20792
 H731 H 0.21892 0.77804 0.30245
 H732 H 0.30616 0.76841 0.24722
 H733 H 0.32774 0.74443 0.29522
 H734 H 0.31690 0.78761 0.28721
 H735 H 0.19170 0.70412 0.21298
 H736 H 0.16862 0.73305 0.24312
 H737 H 0.30120 0.68536 0.30261
 H738 H 0.27587 0.71097 0.33367
 H739 H 0.22968 0.77676 0.18304
 H740 H 0.20248 0.79778 0.21476
 H741 H 0.20735 0.68788 0.30309
 H742 H 0.22612 0.66246 0.26874
 H743 H 0.27311 0.82129 0.24528
 H744 H 0.30029 0.79446 0.21132
 O745 O 0.25107 0.81565 0.70470
 O746 O 0.20847 0.82622 0.72738
 O747 O 0.30590 0.80447 0.77094
 O748 O 0.30509 0.78116 0.81015
 O749 O 0.30763 0.74761 0.71001
 O750 O 0.27926 0.71128 0.69815
 O751 O 0.22503 0.73716 0.83156
 O752 O 0.24528 0.78007 0.83638
 O753 O 0.16745 0.75304 0.76843
 O754 O 0.17108 0.77359 0.72359
 O755 O 0.21991 0.68440 0.76266
 O756 O 0.26862 0.67726 0.75324
 O757 O 0.23791 0.69932 0.80934
 O758 O 0.28095 0.68652 0.78904
 O759 O 0.18669 0.71037 0.74299
 O760 O 0.18481 0.74062 0.70525
 O761 O 0.18487 0.76594 0.80801
 O762 O 0.20784 0.80043 0.82053
 O763 O 0.26864 0.77716 0.68632
 O764 O 0.24943 0.73534 0.67906
 O765 O 0.32442 0.75818 0.75063
 O766 O 0.31927 0.74142 0.79415
 O767 O 0.27222 0.83053 0.75171
 O768 O 0.22553 0.83904 0.76257
 Zr769 Zr 0.24145 0.80369 0.74429
 O770 O 0.21160 0.78291 0.76491
 Zr771 Zr 0.28997 0.76626 0.77399
 O772 O 0.26217 0.74352 0.79500
 Zr773 Zr 0.26542 0.74772 0.71579
 O774 O 0.23597 0.72497 0.73408
 Zr775 Zr 0.22653 0.76688 0.80125
 O776 O 0.25536 0.79095 0.78238
 Zr777 Zr 0.20133 0.74921 0.74295
 O778 O 0.22947 0.77139 0.72100
 Zr779 Zr 0.25007 0.71151 0.77144
 O780 O 0.28088 0.73209 0.75191
 O781 O 0.27674 0.78076 0.73706
 O782 O 0.21440 0.73372 0.77981
 C783 C 0.26186 0.80224 0.68523
 C784 C 0.29597 0.82698 0.76185
 C785 C 0.32721 0.75135 0.72619
 C786 C 0.23045 0.71172 0.83061
 C787 C 0.16510 0.76060 0.79277
 C788 C 0.19703 0.68754 0.75066
 H789 H 0.19577 0.79529 0.76797
 H790 H 0.23209 0.71010 0.72200
 H791 H 0.29056 0.79075 0.72743
 H792 H 0.27049 0.73741 0.81201
 H793 H 0.25549 0.79598 0.83152
 H794 H 0.29584 0.77213 0.82494
 H795 H 0.19652 0.72631 0.69713
 H796 H 0.23239 0.74614 0.67622
 H797 H 0.20741 0.81535 0.80751
 H798 H 0.23355 0.83956 0.78062
 H799 H 0.26060 0.67563 0.73530
 H800 H 0.29103 0.70179 0.71145
 H801 H 0.20134 0.81520 0.71290
 H802 H 0.16725 0.78961 0.73468
 H803 H 0.31915 0.72359 0.78567
 H804 H 0.28770 0.69580 0.80488
 O805 O 0.25757 0.19108 0.19174
 O806 O 0.30073 0.18577 0.21089
 O807 O 0.20413 0.18409 0.25737
 O808 O 0.20010 0.20608 0.29879
 O809 O 0.18957 0.24750 0.20055
 O810 O 0.20925 0.28807 0.19078
 O811 O 0.27429 0.26124 0.32059
 O812 O 0.26549 0.21599 0.32624
 O813 O 0.32870 0.26099 0.25565
 O814 O 0.32612 0.24986 0.20924
 O815 O 0.26348 0.31929 0.26304
 O816 O 0.21490 0.31987 0.25223
 O817 O 0.24872 0.29727 0.30603
 O818 O 0.20270 0.30096 0.28490
 O819 O 0.30129 0.30400 0.24135
 O820 O 0.30364 0.28183 0.19634
 O821 O 0.31577 0.24261 0.29499
 O822 O 0.29414 0.19768 0.30310
 O823 O 0.23344 0.22644 0.17374
 O824 O 0.24443 0.27353 0.17165
 O825 O 0.17596 0.23033 0.24028
 O826 O 0.17905 0.24027 0.28646
 O827 O 0.24235 0.16827 0.23670
 O828 O 0.29017 0.16927 0.24671
 Zr829 Zr 0.26595 0.20153 0.23080
 O830 O 0.29174 0.22597 0.25166
 Zr831 Zr 0.21161 0.22496 0.26298
 O832 O 0.23507 0.24994 0.28634
 Zr833 Zr 0.23074 0.25386 0.20621
 O834 O 0.25406 0.28098 0.22745
 Zr835 Zr 0.27496 0.23392 0.28930
 O836 O 0.25039 0.20695 0.26938
 Zr837 Zr 0.29313 0.26375 0.23299
 O838 O 0.27048 0.23760 0.20971
 Zr839 Zr 0.23891 0.28658 0.26640
 O840 O 0.21339 0.26251 0.24394
 O841 O 0.22669 0.21706 0.22500
 O842 O 0.27850 0.27130 0.27137
 C843 C 0.24504 0.20280 0.17227
 C844 C 0.21910 0.16502 0.24727
 C845 C 0.17139 0.23978 0.21674
 C846 C 0.26320 0.28470 0.32385
 C847 C 0.33348 0.25212 0.27929
 C848 C 0.28716 0.32240 0.25350
 H849 H 0.30969 0.21651 0.25272
 H850 H 0.25441 0.29815 0.21759
 H851 H 0.21501 0.20532 0.21473
 H852 H 0.22659 0.25236 0.30405
 H853 H 0.24584 0.21905 0.32903
 H854 H 0.21582 0.19451 0.30459
 H855 H 0.29154 0.29791 0.19349
 H856 H 0.26284 0.26590 0.16795
 H857 H 0.31049 0.19412 0.29213
 H858 H 0.28312 0.16556 0.26476
 H859 H 0.22232 0.32542 0.23485
 H860 H 0.19949 0.29643 0.20604
 H861 H 0.30592 0.19958 0.19785
 H862 H 0.33195 0.23184 0.21594
 H863 H 0.17469 0.25873 0.27999
 H864 H 0.20048 0.29063 0.30160
 O865 O 0.79856 0.68222 0.23757
 O866 O 0.80567 0.70238 0.19550
 O867 O 0.81389 0.74641 0.29094
 O868 O 0.79725 0.78676 0.29997
 O869 O 0.74053 0.70053 0.30198
 O870 O 0.70036 0.69639 0.27859
 O871 O 0.74296 0.82357 0.22118
 O872 O 0.78783 0.82078 0.23566
 O873 O 0.73656 0.76173 0.16556
 O874 O 0.74093 0.71624 0.16490
 O875 O 0.67762 0.77400 0.22861
 O876 O 0.67859 0.76234 0.27752
 O877 O 0.70515 0.81348 0.24393
 O878 O 0.69819 0.79460 0.28725
 O879 O 0.69015 0.75077 0.19157
 O880 O 0.71135 0.70314 0.18807
 O881 O 0.76064 0.79638 0.18031
 O882 O 0.80403 0.79694 0.20243
 O883 O 0.76055 0.67175 0.25981
 O884 O 0.71389 0.67670 0.24581
 O885 O 0.76575 0.73361 0.31811
 O886 O 0.75739 0.78222 0.31475
 O887 O 0.82694 0.72202 0.25469
 O888 O 0.82706 0.73496 0.20842
 Zr889 Zr 0.79276 0.72343 0.23001
 O890 O 0.77085 0.74954 0.20414
 Zr891 Zr 0.77278 0.75745 0.28364
 O892 O 0.75080 0.78588 0.25968
 Zr893 Zr 0.73690 0.70776 0.26102
 O894 O 0.71260 0.73397 0.23726
 Zr895 Zr 0.76710 0.78784 0.22110
 O896 O 0.79154 0.76228 0.24616
 Zr897 Zr 0.73080 0.73803 0.19975
 O898 O 0.75399 0.70951 0.22277
 Zr899 Zr 0.71166 0.77269 0.25341
 O900 O 0.73284 0.74553 0.27927
 O901 O 0.77611 0.71913 0.26787
 O902 O 0.72743 0.77681 0.21504
 C903 C 0.78365 0.66549 0.24935
 C904 C 0.83170 0.73285 0.27720
 C905 C 0.75106 0.71319 0.32125
 C906 C 0.71965 0.82989 0.23120
 C907 C 0.74938 0.78318 0.16183
 C908 C 0.67247 0.76375 0.20590
 H909 H 0.78049 0.74949 0.18690
 H910 H 0.69441 0.72674 0.23609
 H911 H 0.78657 0.70665 0.27983
 H912 H 0.75056 0.80368 0.26819
 H913 H 0.80231 0.81331 0.24752
 H914 H 0.79369 0.80339 0.28951
 H915 H 0.69471 0.70197 0.19884
 H916 H 0.72199 0.67146 0.22846
 H917 H 0.80826 0.78315 0.18882
 H918 H 0.83261 0.75201 0.21619
 H919 H 0.66912 0.74801 0.26838
 H920 H 0.69300 0.71225 0.28835
 H921 H 0.79043 0.69158 0.18990
 H922 H 0.76083 0.71588 0.16326
 H923 H 0.73901 0.77639 0.31883
 H924 H 0.71252 0.80673 0.29229
 O925 O 0.68922 0.25834 0.79457
 O926 O 0.70274 0.21147 0.80045
 O927 O 0.76440 0.29634 0.80702
 O928 O 0.80522 0.29516 0.78761
 O929 O 0.71206 0.31867 0.73902
 O930 O 0.70459 0.29759 0.69671
 O931 O 0.82343 0.21566 0.73528
 O932 O 0.82456 0.22976 0.78080
 O933 O 0.75237 0.17157 0.73033
 O934 O 0.70362 0.18353 0.74304
 O935 O 0.76904 0.22845 0.67211
 O936 O 0.76260 0.27933 0.67122
 O937 O 0.81306 0.23952 0.69767
 O938 O 0.79836 0.28470 0.68905
 O939 O 0.73981 0.19891 0.68864
 O940 O 0.69605 0.20143 0.70791
 O941 O 0.79131 0.17902 0.75237
 O942 O 0.80011 0.19715 0.79396
 O943 O 0.67880 0.28249 0.75711
 O944 O 0.67765 0.26985 0.71131
 O945 O 0.75008 0.32550 0.76284
 O946 O 0.79651 0.31486 0.74933
 O947 O 0.73491 0.26554 0.82047
 O948 O 0.73747 0.21839 0.82194
 Zr949 Zr 0.72832 0.24168 0.78749
 O950 O 0.74882 0.21106 0.76609
 Zr951 Zr 0.76984 0.28732 0.76593
 O952 O 0.79159 0.25868 0.74252
 Zr953 Zr 0.71324 0.27694 0.73286
 O954 O 0.73238 0.24737 0.70867
 Zr955 Zr 0.78920 0.22047 0.75982
 O956 O 0.76967 0.24942 0.78477
 Zr957 Zr 0.73228 0.20982 0.72784
 O958 O 0.70965 0.23873 0.75016
 Zr959 Zr 0.77351 0.25507 0.70466
 O960 O 0.75374 0.28637 0.72696
 O961 O 0.72933 0.27983 0.77094
 O962 O 0.77306 0.21685 0.72172
 C963 C 0.67307 0.27349 0.78040
 C964 C 0.75001 0.28514 0.82501
 C965 C 0.72810 0.33394 0.75126
 C966 C 0.82946 0.22514 0.71225
 C967 C 0.77504 0.16349 0.74083
 C968 C 0.75489 0.20755 0.67006
 H969 H 0.74730 0.19387 0.77569
 H970 H 0.72317 0.24714 0.69122
 H971 H 0.71984 0.29359 0.78207
 H972 H 0.81051 0.26399 0.74117
 H973 H 0.81875 0.24096 0.79617
 H974 H 0.82010 0.28342 0.78049
 H975 H 0.69149 0.21670 0.69584
 H976 H 0.67084 0.25287 0.71835
 H977 H 0.78344 0.19018 0.80159
 H978 H 0.75690 0.22032 0.82566
 H979 H 0.74599 0.27247 0.66339
 H980 H 0.72128 0.30646 0.69152
 H981 H 0.68920 0.20939 0.78621
 H982 H 0.71170 0.17410 0.75873
 H983 H 0.78888 0.32069 0.73188
 H984 H 0.81089 0.28954 0.70339
 C985 C 0.10075 0.99412 1.18820
 C986 C 0.08187 1.01512 1.18862
 C987 C 0.07671 1.03088 1.21065
 C988 C 0.09130 1.02460 1.23364
 C989 C 0.11065 1.00248 1.23487
 C990 C 0.11616 0.98763 1.21112
 O991 O 0.10176 0.98175 1.16469
 C992 C 0.08298 0.99536 1.15030
 C993 C 0.07053 1.01601 1.16427
 C994 C 0.05018 1.03288 1.15390
 C995 C 0.04180 1.02820 1.12796
 C996 C 0.05362 1.00675 1.11276
 C997 C 0.07489 0.99021 1.12405
 H998 H 0.06183 1.04745 1.21022
 H999 H 0.08732 1.03709 1.25087
 H1000 H 0.13198 0.97206 1.21011
 H1001 H 0.04087 1.04901 1.16549
 H1002 H 0.02585 1.04141 1.11987
 H1003 H 0.08431 0.97371 1.11306
 C1004 C 0.59503 0.50560 0.69060
 C1005 C 0.56824 0.51065 0.69662
 C1006 C 0.55858 0.51222 0.72244
 C1007 C 0.57728 0.50838 0.74306
 C1008 C 0.60536 0.50269 0.73787
 C1009 C 0.61422 0.50219 0.71089
 O1010 O 0.59970 0.50462 0.66454
 C1011 C 0.57526 0.50921 0.65406
 C1012 C 0.55543 0.51331 0.67293
 C1013 C 0.52844 0.51872 0.66660
 C1014 C 0.52144 0.51951 0.63959
 C1015 C 0.54132 0.51456 0.61962
 C1016 C 0.56871 0.50954 0.62701
 H1017 H 0.53738 0.51649 0.72660
 H1018 H 0.56965 0.51047 0.76316
 H1019 H 0.63540 0.49943 0.70586
 H1020 H 0.51327 0.52195 0.68192
 H1021 H 0.50039 0.52318 0.63431
 H1022 H 0.58433 0.50573 0.61223
 C1023 C 0.41573 0.00037 0.67875
 C1024 C 0.39486 0.00412 0.66106
 C1025 C 0.36820 0.00786 0.66883
 C1026 C 0.36259 0.00767 0.69611
 C1027 C 0.38344 0.00436 0.71571
 C1028 C 0.41059 -0.00006 0.70619
 O1029 O 0.43968 -0.00319 0.66682
 C1030 C 0.43357 -0.00157 0.64098
 C1031 C 0.40630 0.00268 0.63663
 C1032 C 0.39495 0.00485 0.61148
 C1033 C 0.41246 0.00341 0.58972
 C1034 C 0.44093 0.00007 0.59326
 C1035 C 0.45166 -0.00311 0.61937
 H1036 H 0.35208 0.01030 0.65433
 H1037 H 0.34159 0.00932 0.70148
 H1038 H 0.42733 -0.00517 0.71931
 H1039 H 0.37336 0.00790 0.60868
 H1040 H 0.40373 0.00537 0.56997
 H1041 H 0.47322 -0.00564 0.62273
 C1042 C -0.08553 0.49885 1.17147
 C1043 C -0.06360 0.48128 1.17484
 C1044 C -0.05769 0.46817 1.19859
 C1045 C -0.07509 0.47332 1.21992
 C1046 C -0.09775 0.49203 1.21778
 C1047 C -0.10323 0.50455 1.19267
 O1048 O -0.08777 0.50819 1.14663
 C1049 C -0.06675 0.49619 1.13432
 C1050 C -0.05145 0.47952 1.15082
 C1051 C -0.02883 0.46454 1.14230
 C1052 C -0.02136 0.46701 1.11558
 C1053 C -0.03653 0.48426 1.09793
 C1054 C -0.05972 0.49897 1.10752
 H1055 H -0.04062 0.45394 1.20048
 H1056 H -0.07116 0.46223 1.23824
 H1057 H -0.12110 0.51736 1.18928
 H1058 H -0.01729 0.45143 1.15578
 H1059 H -0.00365 0.45552 1.10875
 H1060 H -0.07177 0.51227 1.09465
 C1061 C -0.09125 0.49103 0.31479
 C1062 C -0.07012 0.50771 0.31234
 C1063 C -0.06316 0.51974 0.28864
 C1064 C -0.07844 0.51422 0.26628
 C1065 C -0.10002 0.49618 0.26736
 C1066 C -0.10709 0.48530 0.29258
 O1067 O -0.09427 0.48207 0.33961
 C1068 C -0.07452 0.49339 0.35282
 C1069 C -0.05939 0.50936 0.33690
 C1070 C -0.03776 0.52327 0.34615
 C1071 C -0.03101 0.52029 0.37303
 C1072 C -0.04578 0.50349 0.39010
 C1073 C -0.06814 0.49006 0.37982
 H1074 H -0.04674 0.53325 0.28746
 H1075 H -0.07356 0.52448 0.24796
 H1076 H -0.12462 0.47347 0.29515
 H1077 H -0.02631 0.53578 0.33306
 H1078 H -0.01396 0.53086 0.38036
 H1079 H -0.07983 0.47710 0.39224
 C1080 C 0.41410 0.99885 -0.18807
 C1081 C 0.43585 1.01385 -0.19384
 C1082 C 0.43933 1.02586 -0.21855
 C1083 C 0.41983 1.02183 -0.23825
 C1084 C 0.39770 1.00504 -0.23356
 C1085 C 0.39469 0.99438 -0.20735
 O1086 O 0.41367 0.99030 -0.16298
 C1087 C 0.43577 1.00007 -0.15267
 C1088 C 0.45012 1.01459 -0.17073
 C1089 C 0.47373 1.02691 -0.16400
 C1090 C 0.48288 1.02416 -0.13760
 C1091 C 0.46828 1.00947 -0.11846
 C1092 C 0.44436 0.99722 -0.12630
 H1093 H 0.45603 1.03858 -0.22231
 H1094 H 0.42154 1.03292 -0.25668
 H1095 H 0.37741 0.98313 -0.20180
 H1096 H 0.48463 1.03834 -0.17852
 H1097 H 0.50110 1.03388 -0.13203
 H1098 H 0.43264 0.98596 -0.11230
 C1099 C 0.59919 0.49453 -0.16697
 C1100 C 0.58266 0.47343 -0.17006
 C1101 C 0.58155 0.45901 -0.19349
 C1102 C 0.59704 0.46754 -0.21502
 C1103 C 0.61258 0.49086 -0.21329
 C1104 C 0.61509 0.50314 -0.18801
 O1105 O 0.59631 0.50637 -0.14350
 C1106 C 0.57734 0.49261 -0.13170
 C1107 C 0.56827 0.47224 -0.14708
 C1108 C 0.54720 0.45648 -0.13920
 C1109 C 0.53503 0.46194 -0.11441
 C1110 C 0.54412 0.48284 -0.09813
 C1111 C 0.56574 0.49823 -0.10700
 H1112 H 0.56854 0.44233 -0.19545
 H1113 H 0.59556 0.45694 -0.23365
 H1114 H 0.62789 0.51979 -0.18498
 H1115 H 0.54013 0.44081 -0.15185
 H1116 H 0.51863 0.44988 -0.10792
 H1117 H 0.57299 0.51455 -0.09532
 C1118 C 0.09034 0.00435 0.33045
 C1119 C 0.06693 -0.00814 0.32469
 C1120 C 0.06124 -0.01803 0.29980
 C1121 C 0.08040 -0.01494 0.27983
 C1122 C 0.10455 -0.00099 0.28429
 C1123 C 0.10969 0.00826 0.31051
 O1124 O 0.09230 0.01043 0.35615
 C1125 C 0.06960 0.00158 0.36655
 C1126 C 0.05346 -0.00985 0.34799
 C1127 C 0.02920 -0.02120 0.35431
 C1128 C 0.02107 -0.02075 0.38100
 C1129 C 0.03727 -0.00926 0.40085
 C1130 C 0.06195 0.00216 0.39339
 H1131 H 0.04309 -0.02866 0.29609
 H1132 H 0.07652 -0.02410 0.26082
 H1133 H 0.12845 0.01723 0.31553
 H1134 H 0.01703 -0.03025 0.33923
 H1135 H 0.00224 -0.02966 0.38615
 H1136 H 0.07491 0.01093 0.40798
 C1137 C 0.18414 1.08496 1.01108
 C1138 C 0.19246 1.05903 1.00544
 C1139 C 0.21843 1.05208 0.99690
 C1140 C 0.23637 1.07273 0.99332
 C1141 C 0.22820 1.10025 0.99779
 C1142 C 0.20194 1.10565 1.00871
 O1143 O 0.15813 1.08763 1.01736
 C1144 C 0.14991 1.06278 1.01567
 C1145 C 0.17024 1.04441 1.00889
 C1146 C 0.16591 1.01729 1.00554
 C1147 C 0.13939 1.00890 1.00873
 C1148 C 0.11792 1.02774 1.01446
 C1149 C 0.12338 1.05499 1.01836
 H1150 H 0.22468 1.03144 0.99293
 H1151 H 0.25675 1.06662 0.98776
 H1152 H 0.19517 1.12583 1.01408
 H1153 H 0.18222 1.00321 1.00012
 H1154 H 0.13536 0.98806 1.00548
 H1155 H 0.10731 1.06980 1.02260
 C1156 C 0.68003 0.59448 0.51266
 C1157 C 0.68778 0.56781 0.51469
 C1158 C 0.71419 0.55827 0.51086
 C1159 C 0.73324 0.57680 0.50352
 C1160 C 0.72576 0.60456 0.49948
 C1161 C 0.69898 0.61346 0.50669
 O1162 O 0.65350 0.59907 0.51496
 C1163 C 0.64438 0.57470 0.51852
 C1164 C 0.66466 0.55494 0.51895
 C1165 C 0.65975 0.52789 0.52153
 C1166 C 0.63276 0.52083 0.52331
 C1167 C 0.61134 0.54068 0.52185
 C1168 C 0.61731 0.56808 0.51973
 H1169 H 0.71987 0.53717 0.51291
 H1170 H 0.75386 0.56915 0.50125
 H1171 H 0.69265 0.63448 0.50577
 H1172 H 0.67608 0.51272 0.52160
 H1173 H 0.62854 0.49979 0.52470
 H1174 H 0.60140 0.58365 0.51840
 C1175 C 0.68135 0.40326 -0.00037
 C1176 C 0.68326 0.42398 -0.01829
 C1177 C 0.70676 0.42941 -0.03163
 C1178 C 0.72961 0.41312 -0.02599
 C1179 C 0.72922 0.39186 -0.00677
 C1180 C 0.70404 0.38621 0.00532
 O1181 O 0.65672 0.40223 0.01021
 C1182 C 0.64310 0.42286 -0.00135
 C1183 C 0.65859 0.43655 -0.01904
 C1184 C 0.64906 0.45892 -0.03324
 C1185 C 0.62239 0.46801 -0.02881
 C1186 C 0.60572 0.45482 -0.01028
 C1187 C 0.61623 0.43160 0.00345
 H1188 H 0.70754 0.44572 -0.04588
 H1189 H 0.74793 0.41726 -0.03669
 H1190 H 0.70189 0.36912 0.01832
 H1191 H 0.66182 0.46924 -0.04706
 H1192 H 0.61490 0.48558 -0.03975
 H1193 H 0.60415 0.42110 0.01776
 C1194 C 0.18363 -0.10724 0.49785
 C1195 C 0.18465 -0.08751 0.47873
 C1196 C 0.20845 -0.07933 0.46777
 C1197 C 0.23240 -0.09172 0.47702
 C1198 C 0.23277 -0.11206 0.49731
 C1199 C 0.20749 -0.12077 0.50680
 O1200 O 0.15861 -0.11039 0.50672
 C1201 C 0.14384 -0.09214 0.49285
 C1202 C 0.15897 -0.07798 0.47522
 C1203 C 0.14833 -0.05712 0.45947
 C1204 C 0.12098 -0.04977 0.46263
 C1205 C 0.10490 -0.06305 0.48154
 C1206 C 0.11635 -0.08515 0.49633
 H1207 H 0.20863 -0.06364 0.45279
 H1208 H 0.25085 -0.08527 0.46801
 H1209 H 0.20626 -0.13745 0.52051
 H1210 H 0.16086 -0.04628 0.44586
 H1211 H 0.11261 -0.03299 0.45104
 H1212 H 0.10476 -0.09535 0.51125
 C1213 C 0.32563 -0.08723 0.49357
 C1214 C 0.31868 -0.06426 0.50739
 C1215 C 0.29436 -0.06041 0.52069
 C1216 C 0.27618 -0.08088 0.51938
 C1217 C 0.28193 -0.10458 0.50423
 C1218 C 0.30762 -0.10793 0.49172
 O1219 O 0.35048 -0.08722 0.48359
 C1220 C 0.35920 -0.06369 0.49123
 C1221 C 0.34042 -0.04889 0.50575
 C1222 C 0.34540 -0.02396 0.51631
 C1223 C 0.37097 -0.01390 0.51198
 C1224 C 0.39105 -0.02889 0.49745
 C1225 C 0.38483 -0.05410 0.48670
 H1226 H 0.28968 -0.04243 0.53202
 H1227 H 0.25729 -0.07825 0.53012
 H1228 H 0.31379 -0.12614 0.48142
 H1229 H 0.33025 -0.01281 0.52781
 H1230 H 0.37526 0.00528 0.52053
 H1231 H 0.39967 -0.06625 0.47577
 C1232 C -0.17498 0.40757 0.99169
 C1233 C -0.18015 0.42941 1.00771
 C1234 C -0.20451 0.43435 1.02059
 C1235 C -0.22466 0.41627 1.01652
 C1236 C -0.22081 0.39394 0.99905
 C1237 C -0.19495 0.38914 0.98721
 O1238 O -0.14990 0.40644 0.98213
 C1239 C -0.13928 0.42811 0.99234
 C1240 C -0.15706 0.44275 1.00811
 C1241 C -0.15039 0.46600 1.02104
 C1242 C -0.12417 0.47466 1.01759
 C1243 C -0.10516 0.46003 1.00147
 C1244 C -0.11296 0.43634 0.98863
 H1245 H -0.20780 0.45137 1.03363
 H1246 H -0.24352 0.41971 1.02713
 H1247 H -0.19021 0.37152 0.97542
 H1248 H -0.16485 0.47707 1.03340
 H1249 H -0.11873 0.49275 1.02763
 H1250 H -0.09901 0.42461 0.97627
 C1251 C -0.18035 0.59749 0.47846
 C1252 C -0.18505 0.57724 0.46091
 C1253 C -0.21011 0.57438 0.44907
 C1254 C -0.23156 0.59187 0.45720
 C1255 C -0.22798 0.61081 0.47792
 C1256 C -0.20115 0.61539 0.48623
 O1257 O -0.15589 0.59564 0.48917
 C1258 C -0.14497 0.57351 0.47847
 C1259 C -0.16187 0.56146 0.46096
 C1260 C -0.15520 0.53683 0.44933
 C1261 C -0.13016 0.52415 0.45607
 C1262 C -0.11248 0.53612 0.47434
 C1263 C -0.12007 0.56137 0.48539
 H1264 H -0.21339 0.55845 0.43510
 H1265 H -0.25150 0.58912 0.44914
 H1266 H -0.19666 0.63099 0.50015
 H1267 H -0.16902 0.52741 0.43601
 H1268 H -0.12476 0.50490 0.44729
 H1269 H -0.10736 0.57103 0.49960
 C1270 C 0.32406 1.10448 -0.01588
 C1271 C 0.32311 1.09166 -0.03996
 C1272 C 0.29936 1.09015 -0.05446
 C1273 C 0.27556 1.10158 -0.04327
 C1274 C 0.27542 1.11316 -0.01731
 C1275 C 0.30070 1.11580 -0.00431
 O1276 O 0.34837 1.10300 -0.00479
 C1277 C 0.36306 1.08862 -0.02207
 C1278 C 0.34860 1.08104 -0.04394
 C1279 C 0.35956 1.06390 -0.06330
 C1280 C 0.38631 1.05381 -0.05965
 C1281 C 0.40151 1.06135 -0.03717
 C1282 C 0.38980 1.07945 -0.01846
 H1283 H 0.29906 1.08016 -0.07352
 H1284 H 0.25683 1.10035 -0.05422
 H1285 H 0.30252 1.12586 0.01453
 H1286 H 0.34766 1.05772 -0.08005
 H1287 H 0.39499 1.03977 -0.07399
 H1288 H 0.40061 1.08488 -0.00068
 C1289 C 0.00318 1.17899 1.08842
 C1290 C 0.02244 1.18125 1.06898
 C1291 C 0.03483 1.20499 1.06357
 C1292 C 0.02760 1.22716 1.07941
 C1293 C 0.00857 1.22533 1.10072
 C1294 C -0.00451 1.20077 1.10426
 O1295 O -0.00611 1.15458 1.09038
 C1296 C 0.00774 1.14109 1.07182
 C1297 C 0.02548 1.15652 1.05817
 C1298 C 0.04216 1.14645 1.03803
 C1299 C 0.04026 1.11940 1.03147
 C1300 C 0.02188 1.10302 1.04506
 C1301 C 0.00555 1.11411 1.06572
 H1302 H 0.04982 1.20633 1.04798
 H1303 H 0.03763 1.24564 1.07581
 H1304 H -0.02006 1.19799 1.11890
 H1305 H 0.05605 1.15898 1.02766
 H1306 H 0.05304 1.11134 1.01566
 H1307 H -0.00873 1.10230 1.07643
 C1308 C 0.48865 0.68691 0.59145
 C1309 C 0.49385 0.69159 0.56507
 C1310 C 0.49540 0.71697 0.55441
 C1311 C 0.49215 0.73853 0.57180
 C1312 C 0.48740 0.73495 0.59986
 C1313 C 0.48530 0.70809 0.60923
 O1314 O 0.48884 0.66102 0.59762
 C1315 C 0.49452 0.64924 0.57454
 C1316 C 0.49794 0.66716 0.55405
 C1317 C 0.50523 0.65945 0.52844
 C1318 C 0.50882 0.63199 0.52361
 C1319 C 0.50487 0.61296 0.54426
 C1320 C 0.49765 0.62178 0.57014
 H1321 H 0.49979 0.72010 0.53351
 H1322 H 0.49478 0.75804 0.56303
 H1323 H 0.48208 0.70282 0.62965
 H1324 H 0.50810 0.67404 0.51276
 H1325 H 0.51412 0.62560 0.50363
 H1326 H 0.49469 0.60776 0.58632
 C1327 C -0.01177 0.66941 0.40908
 C1328 C -0.01830 0.67490 0.43503
 C1329 C -0.01946 0.70063 0.44507
 C1330 C -0.01438 0.72170 0.42748
 C1331 C -0.00988 0.71744 0.39951
 C1332 C -0.00731 0.69016 0.39104
 O1333 O -0.00927 0.64328 0.40413
 C1334 C -0.01458 0.63211 0.42756
 C1335 C -0.02041 0.65069 0.44706
 C1336 C -0.02614 0.64366 0.47319
 C1337 C -0.02581 0.61631 0.47957
 C1338 C -0.01936 0.59653 0.46004
 C1339 C -0.01372 0.60466 0.43355
 H1340 H -0.02299 0.70432 0.46605
 H1341 H -0.01279 0.74104 0.43657
 H1342 H -0.00074 0.68450 0.37145
 H1343 H -0.03054 0.65870 0.48819
 H1344 H -0.02994 0.61062 0.49998
 H1345 H -0.00862 0.59015 0.41821
 C1346 C 0.50155 1.19075 -0.09515
 C1347 C 0.51960 1.17589 -0.11040
 C1348 C 0.53435 1.18679 -0.13088
 C1349 C 0.53048 1.21427 -0.13589
 C1350 C 0.51246 1.23081 -0.12010
 C1351 C 0.49714 1.21820 -0.09994
 O1352 O 0.48952 1.17622 -0.07671
 C1353 C 0.50030 1.15166 -0.08053
 C1354 C 0.51865 1.15046 -0.10108
 C1355 C 0.53228 1.12690 -0.10881
 C1356 C 0.52717 1.10356 -0.09446
 C1357 C 0.50881 1.10413 -0.07264
 C1358 C 0.49496 1.12864 -0.06580
 H1359 H 0.54804 1.17448 -0.14295
 H1360 H 0.54102 1.22221 -0.15282
 H1361 H 0.48204 1.22946 -0.08847
 H1362 H 0.54655 1.12653 -0.12515
 H1363 H 0.53804 1.08516 -0.10012
 H1364 H 0.48086 1.12986 -0.04932
 C1365 C 0.49437 0.32448 -0.08700
 C1366 C 0.50803 0.31748 -0.06398
 C1367 C 0.51895 0.29183 -0.05926
 C1368 C 0.51633 0.27273 -0.07930
 C1369 C 0.50217 0.27903 -0.10354
 C1370 C 0.49099 0.30561 -0.10704
 O1371 O 0.48746 0.35048 -0.08842
 C1372 C 0.49703 0.36003 -0.06582
 C1373 C 0.50983 0.34065 -0.05019
 C1374 C 0.52256 0.34642 -0.02635
 C1375 C 0.52178 0.37324 -0.01808
 C1376 C 0.50851 0.39375 -0.03367
 C1377 C 0.49600 0.38685 -0.05799
 H1378 H 0.53042 0.28704 -0.04135
 H1379 H 0.52700 0.25358 -0.07636
 H1380 H 0.48165 0.31194 -0.12568
 H1381 H 0.53285 0.33084 -0.01457
 H1382 H 0.53147 0.37794 0.00054
 H1383 H 0.48589 0.40189 -0.07058
 C1384 C 0.00328 -0.18735 0.40902
 C1385 C -0.02184 -0.18279 0.42002
 C1386 C -0.04174 -0.20131 0.41915
 C1387 C -0.03553 -0.22561 0.40637
 C1388 C -0.00991 -0.23118 0.39385
 C1389 C 0.00967 -0.21109 0.39540
 O1390 O 0.01968 -0.16746 0.41321
 C1391 C 0.00441 -0.14994 0.42704
 C1392 C -0.02129 -0.15833 0.43140
 C1393 C -0.04089 -0.14317 0.44510
 C1394 C -0.03367 -0.11834 0.45488
 C1395 C -0.00715 -0.10951 0.45132
 C1396 C 0.01228 -0.12547 0.43723
 H1397 H -0.06127 -0.19738 0.42836
 H1398 H -0.05088 -0.24036 0.40603
 H1399 H 0.02953 -0.21348 0.38661
 H1400 H -0.06100 -0.15021 0.44818
 H1401 H -0.04853 -0.10619 0.46582
 H1402 H 0.03266 -0.11906 0.43436
 C1403 C 0.48685 -0.16856 0.59082
 C1404 C 0.46625 -0.16973 0.57262
 C1405 C 0.45072 -0.19188 0.56999
 C1406 C 0.45738 -0.21416 0.58609
 C1407 C 0.47987 -0.21444 0.60406
 C1408 C 0.49372 -0.19037 0.60723
 O1409 O 0.49970 -0.14591 0.58948
 C1410 C 0.48704 -0.13264 0.56984
 C1411 C 0.46642 -0.14636 0.55884
 C1412 C 0.45139 -0.13678 0.53713
 C1413 C 0.45789 -0.11196 0.52633
 C1414 C 0.47904 -0.09735 0.53742
 C1415 C 0.49369 -0.10788 0.55961
 H1416 H 0.43439 -0.19222 0.55569
 H1417 H 0.44547 -0.23167 0.58414
 H1418 H 0.51010 -0.18873 0.62126
 H1419 H 0.43546 -0.14812 0.52864
 H1420 H 0.44632 -0.10409 0.50947
 H1421 H 0.51010 -0.09738 0.56838
 C1422 C 0.00439 0.31842 1.08158
 C1423 C -0.01452 0.31488 1.06207
 C1424 C -0.02842 0.29156 1.05985
 C1425 C -0.02263 0.27111 1.07854
 C1426 C -0.00331 0.27409 1.09938
 C1427 C 0.01062 0.29834 1.10030
 O1428 O 0.01528 0.34215 1.08029
 C1429 C 0.00292 0.35383 1.05952
 C1430 C -0.01545 0.33799 1.04759
 C1431 C -0.03067 0.34641 1.02553
 C1432 C -0.02694 0.37232 1.01552
 C1433 C -0.00830 0.38921 1.02772
 C1434 C 0.00692 0.37958 1.05000
 H1435 H -0.04320 0.28916 1.04428
 H1436 H -0.03337 0.25280 1.07697
 H1437 H 0.02614 0.30187 1.11474
 H1438 H -0.04503 0.33359 1.01646
 H1439 H -0.03886 0.37929 0.99855
 H1440 H 0.02131 0.39181 1.05986
 C1441 C 0.75294 0.34531 0.06906
 C1442 C 0.77189 0.32455 0.06643
 C1443 C 0.78627 0.31961 0.04326
 C1444 C 0.78052 0.33637 0.02149
 C1445 C 0.75989 0.35734 0.02247
 C1446 C 0.74683 0.36257 0.04739
 O1447 O 0.74203 0.34631 0.09337
 C1448 C 0.75437 0.32559 0.10604
 C1449 C 0.77280 0.31178 0.09025
 C1450 C 0.78792 0.28932 0.09887
 C1451 C 0.78383 0.28042 0.12494
 C1452 C 0.76489 0.29398 0.14201
 C1453 C 0.75004 0.31714 0.13238
 H1454 H 0.80153 0.30345 0.04197
 H1455 H 0.79216 0.33278 0.00351
 H1456 H 0.73283 0.37956 0.05012
 H1457 H 0.80230 0.27889 0.08591
 H1458 H 0.79562 0.26290 0.13179
 H1459 H 0.73542 0.32794 0.14481
 C1460 C 0.25516 0.85494 0.58007
 C1461 C 0.27898 0.83996 0.58249
 C1462 C 0.29640 0.83489 0.56141
 C1463 C 0.28910 0.84565 0.53661
 C1464 C 0.26459 0.86142 0.53268
 C1465 C 0.24774 0.86677 0.55537
 O1466 O 0.24108 0.85587 0.60280
 C1467 C 0.25651 0.84110 0.61970
 C1468 C 0.28006 0.83133 0.60807
 C1469 C 0.29904 0.81483 0.62126
 C1470 C 0.29320 0.80716 0.64734
 C1471 C 0.26861 0.81573 0.65984
 C1472 C 0.25020 0.83364 0.64607
 H1473 H 0.31497 0.82284 0.56391
 H1474 H 0.30286 0.84180 0.52016
 H1475 H 0.22992 0.88001 0.55433
 H1476 H 0.31737 0.80744 0.61151
 H1477 H 0.30746 0.79355 0.65754
 H1478 H 0.23105 0.84007 0.65488
 C1479 C 0.74635 0.67006 0.55413
 C1480 C 0.76080 0.65289 0.57084
 C1481 C 0.77197 0.62839 0.56305
 C1482 C 0.76794 0.62077 0.53687
 C1483 C 0.75390 0.63790 0.51803
 C1484 C 0.74270 0.66314 0.52712
 O1485 O 0.73575 0.69146 0.56702
 C1486 C 0.74384 0.68735 0.59224
 C1487 C 0.75920 0.66393 0.59521
 C1488 C 0.76897 0.65438 0.61943
 C1489 C 0.76284 0.66957 0.64192
 C1490 C 0.74704 0.69406 0.64023
 C1491 C 0.73750 0.70328 0.61478
 H1492 H 0.78244 0.61494 0.57701
 H1493 H 0.77527 0.60082 0.53144
 H1494 H 0.73041 0.67612 0.51418
 H1495 H 0.78082 0.63568 0.62103
 H1496 H 0.77077 0.66204 0.66077
 H1497 H 0.72532 0.72173 0.61273
 C1498 C 0.24509 0.16424 0.06098
 C1499 C 0.25266 0.14385 0.07827
 C1500 C 0.26076 0.11834 0.07018
 C1501 C 0.26048 0.11314 0.04300
 C1502 C 0.25174 0.13309 0.02397
 C1503 C 0.24418 0.15937 0.03335
 O1504 O 0.23871 0.18718 0.07360
 C1505 C 0.24223 0.18078 0.09933
 C1506 C 0.25043 0.15434 0.10288
 C1507 C 0.25480 0.14255 0.12758
 C1508 C 0.25143 0.15877 0.14986
 C1509 C 0.24437 0.18666 0.14742
 C1510 C 0.23906 0.19778 0.12160
 H1511 H 0.26690 0.10282 0.08438
 H1512 H 0.26645 0.09306 0.03665
 H1513 H 0.23713 0.17522 0.01993
 H1514 H 0.26078 0.12152 0.12967
 H1515 H 0.25499 0.14940 0.16915
 H1516 H 0.23357 0.21886 0.11894
 C1517 C 0.24861 0.18129 0.94357
 C1518 C 0.22326 0.18035 0.93284
 C1519 C 0.20408 0.16345 0.94233
 C1520 C 0.21148 0.14591 0.96312
 C1521 C 0.23741 0.14628 0.97559
 C1522 C 0.25569 0.16557 0.96600
 O1523 O 0.26536 0.19486 0.92827
 C1524 C 0.25008 0.20251 0.90745
 C1525 C 0.22403 0.19437 0.90973
 C1526 C 0.20510 0.19742 0.88952
 C1527 C 0.21335 0.20882 0.86562
 C1528 C 0.24031 0.21658 0.86193
 C1529 C 0.25887 0.21414 0.88348
 H1530 H 0.18479 0.16204 0.93243
 H1531 H 0.19706 0.13115 0.96751
 H1532 H 0.27597 0.16617 0.97390
 H1533 H 0.18489 0.19035 0.89171
 H1534 H 0.19879 0.21082 0.84955
 H1535 H 0.27971 0.21929 0.88104
 C1536 C 0.74817 0.67677 0.43359
 C1537 C 0.72428 0.67211 0.42109
 C1538 C 0.70579 0.65473 0.43099
 C1539 C 0.71240 0.64065 0.45435
 C1540 C 0.73650 0.64521 0.46897
 C1541 C 0.75428 0.66444 0.45834
 O1542 O 0.76482 0.69045 0.41817
 C1543 C 0.75094 0.69429 0.39552
 C1544 C 0.72593 0.68355 0.39670
 C1545 C 0.70868 0.68270 0.37507
 C1546 C 0.71746 0.69316 0.35096
 C1547 C 0.74334 0.70405 0.34840
 C1548 C 0.76025 0.70518 0.37129
 H1549 H 0.68795 0.65018 0.41975
 H1550 H 0.69940 0.62463 0.45904
 H1551 H 0.77362 0.66739 0.46760
 H1552 H 0.68929 0.67368 0.37653
 H1553 H 0.70396 0.69242 0.33406
 H1554 H 0.78022 0.71296 0.36996
 C1555 C 0.26816 0.83784 0.43650
 C1556 C 0.26078 0.81264 0.44359
 C1557 C 0.25432 0.80563 0.46949
 C1558 C 0.25535 0.82540 0.48902
 C1559 C 0.26375 0.85175 0.48295
 C1560 C 0.26986 0.85784 0.45581
 O1561 O 0.27157 0.84067 0.41030
 C1562 C 0.26621 0.81666 0.40078
 C1563 C 0.25956 0.79888 0.42046
 C1564 C 0.25214 0.77301 0.41522
 C1565 C 0.25149 0.76501 0.38856
 C1566 C 0.25805 0.78283 0.36753
 C1567 C 0.26573 0.80910 0.37389
 H1568 H 0.24766 0.78586 0.47436
 H1569 H 0.24859 0.82018 0.50880
 H1570 H 0.27484 0.87778 0.44964
 H1571 H 0.24677 0.75949 0.43111
 H1572 H 0.24562 0.74486 0.38439
 H1573 H 0.27059 0.82334 0.35845
 C1574 C 0.76162 0.34443 0.92565
 C1575 C 0.74811 0.32147 0.93002
 C1576 C 0.73696 0.31482 0.95427
 C1577 C 0.74009 0.33238 0.97530
 C1578 C 0.75531 0.35583 0.97255
 C1579 C 0.76543 0.36231 0.94671
 O1580 O 0.76909 0.34722 0.90022
 C1581 C 0.76009 0.32538 0.88859
 C1582 C 0.74722 0.30917 0.90626
 C1583 C 0.73568 0.28563 0.89911
 C1584 C 0.73727 0.27825 0.87247
 C1585 C 0.75009 0.29439 0.85314
 C1586 C 0.76193 0.31839 0.86146
 H1587 H 0.72558 0.29700 0.95678
 H1588 H 0.73027 0.32771 0.99392
 H1589 H 0.77522 0.38083 0.94287
 H1590 H 0.72566 0.27335 0.91358
 H1591 H 0.72825 0.25973 0.86705
 H1592 H 0.77177 0.33122 0.84736
 C1593 C 0.85405 0.42279 0.24468
 C1594 C 0.83451 0.42631 0.22538
 C1595 C 0.83021 0.44972 0.21099
 C1596 C 0.84638 0.47080 0.21699
 C1597 C 0.86635 0.46872 0.23757
 C1598 C 0.87092 0.44366 0.25088
 O1599 O 0.85403 0.39862 0.25606
 C1600 C 0.83392 0.38702 0.24364
 C1601 C 0.82156 0.40329 0.22467
 C1602 C 0.79976 0.39596 0.20955
 C1603 C 0.78992 0.37070 0.21429
 C1604 C 0.80189 0.35331 0.23393
 C1605 C 0.82449 0.36151 0.24867
 H1606 H 0.81478 0.45178 0.19575
 H1607 H 0.84304 0.48917 0.20567
 H1608 H 0.88698 0.44026 0.26523
 H1609 H 0.79046 0.40934 0.19479
 H1610 H 0.77285 0.36480 0.20258
 H1611 H 0.83399 0.34876 0.26385
 C1612 C 0.33940 0.93415 0.76095
 C1613 C 0.35853 0.91603 0.75124
 C1614 C 0.38300 0.92352 0.74110
 C1615 C 0.38760 0.95089 0.73992
 C1616 C 0.36783 0.97086 0.74842
 C1617 C 0.34419 0.96158 0.76119
 O1618 O 0.31706 0.92269 0.76901
 C1619 C 0.32235 0.89681 0.76414
 C1620 C 0.34773 0.89172 0.75373
 C1621 C 0.35774 0.86613 0.74725
 C1622 C 0.34070 0.84486 0.75123
 C1623 C 0.31401 0.84958 0.76088
 C1624 C 0.30471 0.87595 0.76758
 H1625 H 0.39803 0.90879 0.73407
 H1626 H 0.40704 0.95628 0.73259
 H1627 H 0.33019 0.97464 0.77194
 H1628 H 0.37783 0.86271 0.73911
 H1629 H 0.34791 0.82482 0.74581
 H1630 H 0.28438 0.88005 0.77489
 C1631 C 0.15276 0.92424 0.26429
 C1632 C 0.17318 0.92655 0.28253
 C1633 C 0.17878 0.95037 0.29463
 C1634 C 0.16308 0.97304 0.28730
 C1635 C 0.14240 0.97218 0.26746
 C1636 C 0.13637 0.94677 0.25685
 O1637 O 0.15150 0.89941 0.25502
 C1638 C 0.17168 0.88609 0.26767
 C1639 C 0.18537 0.90193 0.28479
 C1640 C 0.20763 0.89273 0.29956
 C1641 C 0.21661 0.86604 0.29626
 C1642 C 0.20333 0.84910 0.27840
 C1643 C 0.18020 0.85922 0.26417
 H1644 H 0.19477 0.95150 0.30921
 H1645 H 0.16729 0.99157 0.29717
 H1646 H 0.11949 0.94438 0.24358
 H1647 H 0.21803 0.90579 0.31281
 H1648 H 0.23416 0.85869 0.30745
 H1649 H 0.16979 0.84691 0.25020
 C1650 C 0.66797 0.43766 0.74432
 C1651 C 0.69052 0.44091 0.75964
 C1652 C 0.69429 0.46402 0.77414
 C1653 C 0.67383 0.48443 0.77309
 C1654 C 0.65036 0.48209 0.75695
 C1655 C 0.64770 0.45793 0.74248
 O1656 O 0.66690 0.41322 0.73425
 C1657 C 0.68929 0.40075 0.74342
 C1658 C 0.70452 0.41681 0.75899
 C1659 C 0.72794 0.40731 0.77187
 C1660 C 0.73593 0.38017 0.76865
 C1661 C 0.72036 0.36298 0.75297
 C1662 C 0.69679 0.37369 0.73999
 H1663 H 0.71170 0.46573 0.78693
 H1664 H 0.67570 0.50159 0.78588
 H1665 H 0.62951 0.45398 0.73159
 H1666 H 0.73941 0.42022 0.78435
 H1667 H 0.75394 0.37249 0.77888
 H1668 H 0.68419 0.36123 0.72815
 C1669 C 0.66045 0.56914 0.75053
 C1670 C 0.64105 0.58654 0.76099
 C1671 C 0.61754 0.57817 0.77263
 C1672 C 0.61366 0.55066 0.77350
 C1673 C 0.63331 0.53156 0.76325
 C1674 C 0.65689 0.54146 0.75092
 O1675 O 0.68129 0.58163 0.74024
 C1676 C 0.67472 0.60744 0.74437
 C1677 C 0.65015 0.61135 0.75679
 C1678 C 0.63894 0.63652 0.76284
 C1679 C 0.65388 0.65871 0.75636
 C1680 C 0.67979 0.65558 0.74420
 C1681 C 0.69020 0.62939 0.73783
 H1682 H 0.60243 0.59238 0.78044
 H1683 H 0.59488 0.54430 0.78184
 H1684 H 0.67166 0.52827 0.74116
 H1685 H 0.61944 0.63899 0.77249
 H1686 H 0.64534 0.67835 0.76148
 H1687 H 0.70985 0.62616 0.72865
 C1688 C 0.15869 0.06762 0.26472
 C1689 C 0.18105 0.06176 0.24926
 C1690 C 0.18691 0.03682 0.23847
 C1691 C 0.16893 0.01687 0.24366
 C1692 C 0.14571 0.02149 0.26019
 C1693 C 0.14042 0.04771 0.27060
 O1694 O 0.15663 0.09335 0.27170
 C1695 C 0.17821 0.10364 0.26033
 C1696 C 0.19365 0.08495 0.24643
 C1697 C 0.21670 0.09093 0.23239
 C1698 C 0.22454 0.11737 0.23280
 C1699 C 0.20935 0.13741 0.24710
 C1700 C 0.18565 0.13039 0.26102
 H1701 H 0.20434 0.03302 0.22581
 H1702 H 0.17286 -0.00233 0.23420
 H1703 H 0.12231 0.05280 0.28184
 H1704 H 0.22827 0.07574 0.22142
 H1705 H 0.24255 0.12211 0.22184
 H1706 H 0.17355 0.14513 0.27203
 C1707 C 0.33967 0.07029 0.75955
 C1708 C 0.31283 0.06509 0.75784
 C1709 C 0.30419 0.03981 0.75175
 C1710 C 0.32398 0.01906 0.74773
 C1711 C 0.35218 0.02302 0.75140
 C1712 C 0.35952 0.04985 0.75647
 O1713 O 0.34401 0.09610 0.76280
 C1714 C 0.31928 0.10749 0.76333
 C1715 C 0.29940 0.08939 0.76063
 C1716 C 0.27205 0.09719 0.76015
 C1717 C 0.26498 0.12471 0.76232
 C1718 C 0.28519 0.14386 0.76427
 C1719 C 0.31275 0.13496 0.76495
 H1720 H 0.28299 0.03646 0.74874
 H1721 H 0.31695 0.00062 0.73984
 H1722 H 0.38022 0.05543 0.75708
 H1723 H 0.25671 0.08265 0.75790
 H1724 H 0.24383 0.13117 0.76151
 H1725 H 0.32866 0.14904 0.76627
 C1726 C 0.84863 0.56499 0.23948
 C1727 C 0.82581 0.56044 0.25410
 C1728 C 0.82047 0.53583 0.26502
 C1729 C 0.83924 0.51477 0.26042
 C1730 C 0.86266 0.51803 0.24423
 C1731 C 0.86779 0.54410 0.23448
 O1732 O 0.84987 0.59042 0.23176
 C1733 C 0.82729 0.60187 0.24171
 C1734 C 0.81197 0.58428 0.25554
 C1735 C 0.78768 0.59171 0.26781
 C1736 C 0.77858 0.61854 0.26565
 C1737 C 0.79384 0.63732 0.25144
 C1738 C 0.81866 0.62876 0.23934
 H1739 H 0.80268 0.53300 0.27705
 H1740 H 0.83548 0.49571 0.26976
 H1741 H 0.88617 0.54821 0.22392
 H1742 H 0.77611 0.57734 0.27863
 H1743 H 0.75963 0.62460 0.27509
 H1744 H 0.83083 0.64252 0.22838
 C1745 C 0.93284 0.25488 0.15346
 C1746 C 0.93739 0.23731 0.17429
 C1747 C 0.96193 0.22334 0.17822
 C1748 C 0.98259 0.22755 0.15979
 C1749 C 0.97880 0.24577 0.13783
 C1750 C 0.95327 0.25996 0.13533
 O1751 O 0.90788 0.26574 0.15295
 C1752 C 0.89642 0.25480 0.17402
 C1753 C 0.91373 0.23746 0.18794
 C1754 C 0.90613 0.22422 0.21102
 C1755 C 0.87954 0.22897 0.22002
 C1756 C 0.86126 0.24624 0.20560
 C1757 C 0.86972 0.25933 0.18227
 H1758 H 0.96501 0.20948 0.19474
 H1759 H 1.00171 0.21645 0.16249
 H1760 H 0.94884 0.27479 0.12008
 H1761 H 0.92015 0.21081 0.22172
 H1762 H 0.87300 0.21892 0.23793
 H1763 H 0.85601 0.27269 0.17109
 C1764 C 0.42467 0.76407 0.66381
 C1765 C 0.43065 0.74504 0.68294
 C1766 C 0.45562 0.73126 0.68418
 C1767 C 0.47471 0.73674 0.66433
 C1768 C 0.46901 0.75595 0.64351
 C1769 C 0.44350 0.77047 0.64469
 O1770 O 0.39949 0.77413 0.66490
 C1771 C 0.38918 0.76111 0.68524
 C1772 C 0.40744 0.74324 0.69728
 C1773 C 0.40062 0.72752 0.71907
 C1774 C 0.37398 0.73045 0.72871
 C1775 C 0.35485 0.74828 0.71599
 C1776 C 0.36257 0.76380 0.69401
 H1777 H 0.45999 0.71618 0.69936
 H1778 H 0.49377 0.72527 0.66492
 H1779 H 0.43717 0.78609 0.63093
 H1780 H 0.41524 0.71361 0.72832
 H1781 H 0.36810 0.71865 0.74575
 H1782 H 0.34836 0.77779 0.68425
 C1783 C 0.43177 0.25714 0.84710
 C1784 C 0.43669 0.24446 0.82328
 C1785 C 0.46232 0.23853 0.81354
 C1786 C 0.48407 0.24548 0.82917
 C1787 C 0.48033 0.25812 0.85445
 C1788 C 0.45339 0.26392 0.86351
 O1789 O 0.40543 0.26116 0.85201
 C1790 C 0.39377 0.25062 0.83080
 C1791 C 0.41221 0.23989 0.81295
 C1792 C 0.40503 0.22744 0.78960
 C1793 C 0.37755 0.22660 0.78381
 C1794 C 0.35768 0.23850 0.80107
 C1795 C 0.36600 0.25036 0.82525
 H1796 H 0.46552 0.22863 0.79460
 H1797 H 0.50410 0.24031 0.82172
 H1798 H 0.44927 0.27249 0.88290
 H1799 H 0.42011 0.21897 0.77607
 H1800 H 0.37194 0.21743 0.76525
 H1801 H 0.35148 0.25971 0.83882
 C1802 C 0.93346 0.74870 0.33317
 C1803 C 0.93716 0.72639 0.31768
 C1804 C 0.96132 0.71109 0.31764
 C1805 C 0.98149 0.71790 0.33584
 C1806 C 0.97709 0.73905 0.35465
 C1807 C 0.95351 0.75622 0.35059
 O1808 O 0.90896 0.76044 0.33098
 C1809 C 0.89671 0.74502 0.31384
 C1810 C 0.91312 0.72398 0.30486
 C1811 C 0.90405 0.70503 0.28722
 C1812 C 0.87712 0.70801 0.27842
 C1813 C 0.85970 0.72947 0.28758
 C1814 C 0.86980 0.74817 0.30565
 H1815 H 0.96436 0.69412 0.30450
 H1816 H 1.00042 0.70631 0.33533
 H1817 H 0.94958 0.77478 0.36083
 H1818 H 0.91719 0.68850 0.28054
 H1819 H 0.86981 0.69346 0.26459
 H1820 H 0.85720 0.76486 0.31291
 C1821 C 0.06462 0.74587 0.34311
 C1822 C 0.08190 0.73898 0.36366
 C1823 C 0.07314 0.73188 0.38880
 C1824 C 0.04531 0.73192 0.39320
 C1825 C 0.02630 0.73859 0.37251
 C1826 C 0.03653 0.74619 0.34704
 O1827 O 0.07761 0.75209 0.32077
 C1828 C 0.10360 0.74900 0.32757
 C1829 C 0.10708 0.74115 0.35369
 C1830 C 0.13224 0.73673 0.36539
 C1831 C 0.15497 0.73994 0.34941
 C1832 C 0.15240 0.74732 0.32205
 C1833 C 0.12617 0.75237 0.31107
 H1834 H 0.08728 0.72689 0.40471
 H1835 H 0.03870 0.72747 0.41321
 H1836 H 0.02321 0.75285 0.33101
 H1837 H 0.13433 0.73073 0.38609
 H1838 H 0.17466 0.73623 0.35842
 H1839 H 0.12343 0.75790 0.29032
 C1840 C 0.57663 0.27588 0.84722
 C1841 C 0.57066 0.29073 0.82465
 C1842 C 0.54444 0.29910 0.81781
 C1843 C 0.52344 0.29057 0.83409
 C1844 C 0.52882 0.27308 0.85629
 C1845 C 0.55615 0.26791 0.86410
 O1846 O 0.60244 0.26776 0.84885
 C1847 C 0.61295 0.27750 0.82670
 C1848 C 0.59442 0.29189 0.81126
 C1849 C 0.60062 0.30186 0.78616
 C1850 C 0.62688 0.29648 0.77645
 C1851 C 0.64622 0.28109 0.79174
 C1852 C 0.63912 0.27196 0.81749
 H1853 H 0.54019 0.31091 0.80000
 H1854 H 0.50295 0.29678 0.82867
 H1855 H 0.56128 0.25580 0.88150
 H1856 H 0.58554 0.31269 0.77415
 H1857 H 0.63182 0.30364 0.75670
 H1858 H 0.65312 0.25985 0.82960
 C1859 C 0.55687 0.76146 0.65832
 C1860 C 0.57442 0.76076 0.63720
 C1861 C 0.56613 0.76154 0.61099
 C1862 C 0.53848 0.76196 0.60611
 C1863 C 0.51905 0.76083 0.62715
 C1864 C 0.52887 0.76240 0.65389
 O1865 O 0.56954 0.76073 0.68177
 C1866 C 0.59560 0.75942 0.67499
 C1867 C 0.59939 0.75954 0.64788
 C1868 C 0.62460 0.75824 0.63592
 C1869 C 0.64712 0.75677 0.65259
 C1870 C 0.64423 0.75655 0.68079
 C1871 C 0.61795 0.75777 0.69221
 H1872 H 0.58049 0.76187 0.59473
 H1873 H 0.53254 0.76367 0.58556
 H1874 H 0.51562 0.76457 0.67087
 H1875 H 0.62686 0.75826 0.61446
 H1876 H 0.66689 0.75556 0.64333
 H1877 H 0.61505 0.75765 0.71359
 C1878 C 0.07278 0.24261 0.15355
 C1879 C 0.06897 0.26015 0.17426
 C1880 C 0.04550 0.27619 0.17713
 C1881 C 0.02500 0.27368 0.15809
 C1882 C 0.02777 0.25488 0.13679
 C1883 C 0.05251 0.23919 0.13495
 O1884 O 0.09672 0.22956 0.15391
 C1885 C 0.10829 0.23890 0.17550
 C1886 C 0.09201 0.25739 0.18895
 C1887 C 0.09992 0.26911 0.21259
 C1888 C 0.12582 0.26186 0.22239
 C1889 C 0.14323 0.24370 0.20818
 C1890 C 0.13432 0.23197 0.18448
 H1891 H 0.04299 0.29008 0.19349
 H1892 H 0.00650 0.28588 0.16029
 H1893 H 0.05629 0.22386 0.12028
 H1894 H 0.08674 0.28343 0.22299
 H1895 H 0.13276 0.27115 0.24042
 H1896 H 0.14739 0.21819 0.17326
 C1897 C -0.09395 0.98915 0.83190
 C1898 C -0.07706 1.01012 0.83044
 C1899 C -0.07732 1.02817 0.80939
 C1900 C -0.09464 1.02355 0.78815
 C1901 C -0.11083 1.00053 0.78758
 C1902 C -0.11145 0.98407 0.81090
 O1903 O -0.09037 0.97446 0.85393
 C1904 C -0.07053 0.98631 0.86635
 C1905 C -0.06155 1.00807 0.85257
 C1906 C -0.04034 1.02299 0.86126
 C1907 C -0.02827 1.01559 0.88558
 C1908 C -0.03770 0.99383 0.90056
 C1909 C -0.05904 0.97883 0.89089
 H1910 H -0.06412 1.04482 0.80897
 H1911 H -0.09429 1.03700 0.77113
 H1912 H -0.12406 0.96704 0.81238
 H1913 H -0.03354 1.03989 0.84988
 H1914 H -0.01228 1.02741 0.89331
 H1915 H -0.06682 0.96245 0.90238
 C1916 C 0.41098 0.49473 0.33072
 C1917 C 0.43088 0.47465 0.32945
 C1918 C 0.43547 0.45895 0.30725
 C1919 C 0.41913 0.46429 0.28513
 C1920 C 0.39873 0.48551 0.28495
 C1921 C 0.39417 0.50051 0.30869
 O1922 O 0.41029 0.50696 0.35423
 C1923 C 0.43025 0.49427 0.36776
 C1924 C 0.44335 0.47435 0.35335
 C1925 C 0.46497 0.45859 0.36316
 C1926 C 0.47375 0.46366 0.38902
 C1927 C 0.46086 0.48419 0.40455
 C1928 C 0.43858 0.49962 0.39375
 H1929 H 0.45109 0.44305 0.30694
 H1930 H 0.42248 0.45187 0.26772
 H1931 H 0.37798 0.51566 0.31032
 H1932 H 0.47485 0.44303 0.35126
 H1933 H 0.49062 0.45150 0.39688
 H1934 H 0.42833 0.51546 0.40502
 C1935 C 0.60149 0.00251 0.31614
 C1936 C 0.58292 0.02374 0.31479
 C1937 C 0.57747 0.03843 0.29193
 C1938 C 0.59179 0.03112 0.26917
 C1939 C 0.61150 0.00925 0.26907
 C1940 C 0.61685 -0.00489 0.29350
 O1941 O 0.60251 -0.00887 0.34032
 C1942 C 0.58414 0.00571 0.35418
 C1943 C 0.57205 0.02603 0.33924
 C1944 C 0.55246 0.04401 0.34894
 C1945 C 0.54417 0.04061 0.37516
 C1946 C 0.55506 0.01912 0.39119
 C1947 C 0.57592 0.00166 0.38069
 H1948 H 0.56267 0.05507 0.29158
 H1949 H 0.58776 0.04304 0.25140
 H1950 H 0.63275 -0.02033 0.29526
 H1951 H 0.54359 0.05998 0.33663
 H1952 H 0.52866 0.05458 0.38267
 H1953 H 0.58467 -0.01487 0.39235
 C1954 C 0.09483 0.50844 0.81026
 C1955 C 0.07991 0.53226 0.81105
 C1956 C 0.07831 0.55008 0.78987
 C1957 C 0.09295 0.54328 0.76692
 C1958 C 0.10960 0.51914 0.76532
 C1959 C 0.10956 0.50112 0.78751
 O1960 O 0.09257 0.49389 0.83234
 C1961 C 0.07586 0.50899 0.84728
 C1962 C 0.06746 0.53262 0.83504
 C1963 C 0.04917 0.55105 0.84651
 C1964 C 0.03909 0.54489 0.87177
 C1965 C 0.04753 0.52071 0.88500
 C1966 C 0.06633 0.50257 0.87257
 H1967 H 0.06575 0.56838 0.79074
 H1968 H 0.09045 0.55683 0.75024
 H1969 H 0.11975 0.48153 0.78703
 H1970 H 0.04275 0.56942 0.83630
 H1971 H 0.02483 0.55903 0.88107
 H1972 H 0.07291 0.48384 0.88203
 C1973 C 0.08930 0.49263 0.67320
 C1974 C 0.06468 0.48470 0.68208
 C1975 C 0.05768 0.48485 0.70885
 C1976 C 0.07671 0.49368 0.72717
 C1977 C 0.10235 0.50272 0.71862
 C1978 C 0.10856 0.50133 0.69093
 O1979 O 0.09178 0.49185 0.64693
 C1980 C 0.06816 0.48332 0.63906
 C1981 C 0.05081 0.47849 0.65971
 C1982 C 0.02460 0.47036 0.65559
 C1983 C 0.01580 0.46780 0.62908
 C1984 C 0.03317 0.47354 0.60748
 C1985 C 0.05994 0.48079 0.61278
 H1986 H 0.03820 0.47843 0.71546
 H1987 H 0.07113 0.49315 0.74796
 H1988 H 0.12798 0.50706 0.68345
 H1989 H 0.01119 0.46684 0.67215
 H1990 H -0.00478 0.46241 0.62543
 H1991 H 0.07381 0.48544 0.59690
 C1992 C 0.59304 1.01493 0.17392
 C1993 C 0.56976 1.00187 0.17898
 C1994 C 0.56457 0.98953 0.20303
 C1995 C 0.58390 0.99110 0.22303
 C1996 C 0.60760 1.00602 0.21955
 C1997 C 0.61258 1.01727 0.19395
 O1998 O 0.59446 1.02358 0.14881
 C1999 C 0.57149 1.01587 0.13810
 C2000 C 0.55570 1.00267 0.15591
 C2001 C 0.53111 0.99235 0.14919
 C2002 C 0.52237 0.99549 0.12282
 C2003 C 0.53836 1.00853 0.10362
 C2004 C 0.56327 1.01907 0.11154
 H2005 H 0.54654 0.97848 0.20611
 H2006 H 0.58027 0.98052 0.24150
 H2007 H 0.63113 1.02696 0.18954
 H2008 H 0.51920 0.98194 0.16369
 H2009 H 0.50343 0.98709 0.11729
 H2010 H 0.57607 1.02895 0.09741
 C2011 C 0.41230 0.49185 0.18818
 C2012 C 0.43528 0.50521 0.19349
 C2013 C 0.44266 0.51250 0.21882
 C2014 C 0.42564 0.50590 0.23970
 C2015 C 0.40183 0.49124 0.23551
 C2016 C 0.39492 0.48479 0.20887
 O2017 O 0.40876 0.48786 0.16227
 C2018 C 0.43001 0.49898 0.15127
 C2019 C 0.44673 0.50995 0.16959
 C2020 C 0.46987 0.52304 0.16265
 C2021 C 0.47644 0.52448 0.13556
 C2022 C 0.45990 0.51289 0.11608
 C2023 C 0.43614 0.50019 0.12417
 H2024 H 0.46049 0.52369 0.22234
 H2025 H 0.43079 0.51325 0.25919
 H2026 H 0.37617 0.47563 0.20420
 H2027 H 0.48255 0.53165 0.17759
 H2028 H 0.49466 0.53423 0.12989
 H2029 H 0.42301 0.49115 0.10990
 C2030 C -0.09008 -0.00673 0.69100
 C2031 C -0.06339 -0.00930 0.69809
 C2032 C -0.05492 -0.01071 0.72422
 C2033 C -0.07476 -0.00947 0.74395
 C2034 C -0.10315 -0.00568 0.73794
 C2035 C -0.11031 -0.00487 0.71038
 O2036 O -0.09378 -0.00721 0.66479
 C2037 C -0.06877 -0.01011 0.65534
 C2038 C -0.04945 -0.01142 0.67498
 C2039 C -0.02196 -0.01455 0.66974
 C2040 C -0.01397 -0.01604 0.64299
 C2041 C -0.03348 -0.01472 0.62227
 C2042 C -0.06133 -0.01192 0.62861
 H2043 H -0.03375 -0.01372 0.72930
 H2044 H -0.06743 -0.01287 0.76400
 H2045 H -0.13070 -0.00374 0.70334
 H2046 H -0.00718 -0.01559 0.68564
 H2047 H 0.00739 -0.01820 0.63845
 H2048 H -0.07668 -0.01060 0.61324
 C2049 C -0.17345 0.90810 0.99697
 C2050 C -0.17696 0.92895 0.97916
 C2051 C -0.20051 0.93361 0.96464
 C2052 C -0.22137 0.91607 0.96867
 C2053 C -0.21863 0.89393 0.98687
 C2054 C -0.19397 0.89035 1.00138
 O2055 O -0.14953 0.90749 1.00899
 C2056 C -0.13775 0.92845 0.99847
 C2057 C -0.15374 0.94226 0.98016
 C2058 C -0.14561 0.96500 0.96691
 C2059 C -0.11982 0.97384 0.97265
 C2060 C -0.10269 0.95991 0.99137
 C2061 C -0.11195 0.93681 1.00446
 H2062 H -0.20285 0.95029 0.95082
 H2063 H -0.23993 0.91970 0.95756
 H2064 H -0.19055 0.87476 1.01612
 H2065 H -0.15862 0.97555 0.95260
 H2066 H -0.11319 0.99143 0.96227
 H2067 H -0.09951 0.92566 1.01883
 C2068 C 0.32675 0.40692 0.50312
 C2069 C 0.32252 0.42740 0.48494
 C2070 C 0.29901 0.43107 0.47028
 C2071 C 0.27874 0.41312 0.47472
 C2072 C 0.28169 0.39210 0.49412
 C2073 C 0.30669 0.38862 0.50797
 O2074 O 0.35100 0.40701 0.51448
 C2075 C 0.36207 0.42807 0.50322
 C2076 C 0.34538 0.44114 0.48502
 C2077 C 0.35264 0.46365 0.47084
 C2078 C 0.37824 0.47328 0.47566
 C2079 C 0.39607 0.46033 0.49438
 C2080 C 0.38777 0.43726 0.50830
 H2081 H 0.29639 0.44712 0.45577
 H2082 H 0.26042 0.41564 0.46304
 H2083 H 0.31075 0.37211 0.52163
 H2084 H 0.33904 0.47350 0.45659
 H2085 H 0.38412 0.49081 0.46468
 H2086 H 0.40080 0.42684 0.52269
 C2087 C 0.31698 0.60618 0.01409
 C2088 C 0.31594 0.59068 0.03673
 C2089 C 0.29292 0.58982 0.05249
 C2090 C 0.26962 0.60431 0.04364
 C2091 C 0.26925 0.61832 0.01873
 C2092 C 0.29424 0.62096 0.00516
 O2093 O 0.34025 0.60324 0.00112
 C2094 C 0.35412 0.58516 0.01570
 C2095 C 0.34017 0.57678 0.03772
 C2096 C 0.35015 0.55644 0.05456
 C2097 C 0.37549 0.54428 0.04844
 C2098 C 0.39031 0.55262 0.02582
 C2099 C 0.37945 0.57359 0.00941
 H2100 H 0.29260 0.57765 0.07040
 H2101 H 0.25120 0.60303 0.05512
 H2102 H 0.29606 0.63293 -0.01270
 H2103 H 0.33862 0.54983 0.07151
 H2104 H 0.38354 0.52840 0.06137
 H2105 H 0.39000 0.58020 -0.00818
 C2106 C -0.17888 0.08921 0.51803
 C2107 C -0.18434 0.06259 0.51803
 C2108 C -0.20949 0.05345 0.51157
 C2109 C -0.22981 0.07250 0.50414
 C2110 C -0.22486 0.10048 0.50292
 C2111 C -0.19917 0.10859 0.51202
 O2112 O -0.15305 0.09351 0.52287
 C2113 C -0.14202 0.06893 0.52610
 C2114 C -0.16054 0.04940 0.52385
 C2115 C -0.15361 0.02227 0.52601
 C2116 C -0.12633 0.01484 0.52993
 C2117 C -0.10637 0.03439 0.53094
 C2118 C -0.11449 0.06196 0.52941
 H2119 H -0.21332 0.03230 0.51200
 H2120 H -0.24951 0.06506 0.50032
 H2121 H -0.19478 0.12959 0.51313
 H2122 H -0.16858 0.00731 0.52410
 H2123 H -0.12069 -0.00635 0.53078
 H2124 H -0.09982 0.07735 0.52982
 C2125 C 0.67948 0.09867 0.48901
 C2126 C 0.68304 0.08025 0.46899
 C2127 C 0.70706 0.07722 0.45469
 C2128 C 0.72873 0.09261 0.46250
 C2129 C 0.72660 0.10965 0.48517
 C2130 C 0.70055 0.11432 0.49679
 O2131 O 0.65559 0.09788 0.50089
 C2132 C 0.64385 0.07826 0.48834
 C2133 C 0.65977 0.06676 0.46865
 C2134 C 0.65201 0.04477 0.45418
 C2135 C 0.62686 0.03430 0.46021
 C2136 C 0.60996 0.04588 0.48042
 C2137 C 0.61869 0.06835 0.49452
 H2138 H 0.70934 0.06286 0.43870
 H2139 H 0.74787 0.08980 0.45222
 H2140 H 0.69681 0.12864 0.51256
 H2141 H 0.66498 0.03577 0.43902
 H2142 H 0.62053 0.01726 0.44898
 H2143 H 0.60651 0.07759 0.51017
 C2144 C 0.17800 0.59298 0.98824
 C2145 C 0.18644 0.56662 0.99144
 C2146 C 0.21230 0.55881 0.99971
 C2147 C 0.23010 0.57898 1.00544
 C2148 C 0.22189 0.60681 1.00326
 C2149 C 0.19565 0.61332 0.99272
 O2150 O 0.15202 0.59626 0.98201
 C2151 C 0.14396 0.57134 0.98120
 C2152 C 0.16439 0.55241 0.98633
 C2153 C 0.16031 0.52506 0.98710
 C2154 C 0.13390 0.51695 0.98315
 C2155 C 0.11229 0.53621 0.97927
 C2156 C 0.11748 0.56376 0.97782
 H2157 H 0.21858 0.53785 1.00182
 H2158 H 0.25046 0.57231 1.01055
 H2159 H 0.18886 0.63395 0.98911
 H2160 H 0.17671 0.51057 0.99128
 H2161 H 0.13003 0.49583 0.98460
 H2162 H 0.10126 0.57885 0.97514
 C2163 C 0.18265 0.39793 0.49792
 C2164 C 0.18484 0.42076 0.51266
 C2165 C 0.20906 0.42924 0.52228
 C2166 C 0.23230 0.41374 0.51627
 C2167 C 0.23152 0.39025 0.50018
 C2168 C 0.20577 0.38173 0.49191
 O2169 O 0.15721 0.39390 0.49089
 C2170 C 0.14334 0.41475 0.50149
 C2171 C 0.15951 0.43151 0.51514
 C2172 C 0.14981 0.45448 0.52793
 C2173 C 0.12215 0.46088 0.52630
 C2174 C 0.10465 0.44450 0.51185
 C2175 C 0.11547 0.42082 0.49945
 H2176 H 0.21005 0.44709 0.53427
 H2177 H 0.25103 0.42008 0.52468
 H2178 H 0.20368 0.36302 0.48157
 H2179 H 0.16312 0.46721 0.53862
 H2180 H 0.11457 0.47897 0.53606
 H2181 H 0.10277 0.40789 0.48825
 C2182 C 0.68444 0.91004 -0.00564
 C2183 C 0.68826 0.92946 0.01300
 C2184 C 0.71338 0.93438 0.02348
 C2185 C 0.73535 0.91788 0.01518
 C2186 C 0.73209 0.89643 -0.00316
 C2187 C 0.70602 0.89353 -0.01445
 O2188 O 0.65884 0.90874 -0.01314
 C2189 C 0.64625 0.92769 0.00126
 C2190 C 0.66337 0.94089 0.01763
 C2191 C 0.65457 0.96151 0.03437
 C2192 C 0.62706 0.96936 0.03369
 C2193 C 0.60899 0.95655 0.01645
 C2194 C 0.61875 0.93501 0.00039
 H2195 H 0.71591 0.94996 0.03803
 H2196 H 0.75480 0.92084 0.02427
 H2197 H 0.70190 0.87868 -0.02917
 H2198 H 0.66845 0.97152 0.04715
 H2199 H 0.61998 0.98586 0.04614
 H2200 H 0.60564 0.92506 -0.01324
 C2201 C -0.02250 0.81214 0.92967
 C2202 C -0.03789 0.83012 0.91463
 C2203 C -0.04686 0.82450 0.88929
 C2204 C -0.03903 0.79963 0.87857
 C2205 C -0.02290 0.78005 0.89331
 C2206 C -0.01535 0.78666 0.91982
 O2207 O -0.01287 0.82291 0.95168
 C2208 C -0.02224 0.84826 0.95028
 C2209 C -0.03781 0.85356 0.92797
 C2210 C -0.04707 0.87923 0.92061
 C2211 C -0.03961 0.90044 0.93663
 C2212 C -0.02327 0.89563 0.95947
 C2213 C -0.01492 0.86916 0.96684
 H2214 H -0.05795 0.83946 0.87739
 H2215 H -0.04409 0.79652 0.85789
 H2216 H -0.00280 0.77354 0.93215
 H2217 H -0.05863 0.88293 0.90255
 H2218 H -0.04580 0.92074 0.93084
 H2219 H -0.00164 0.86524 0.98369
 C2220 C 0.50074 0.32737 0.41417
 C2221 C 0.48150 0.32321 0.43327
 C2222 C 0.46771 0.29978 0.43499
 C2223 C 0.47409 0.27984 0.41625
 C2224 C 0.49384 0.28347 0.39586
 C2225 C 0.50747 0.30787 0.39537
 O2226 O 0.51183 0.35088 0.41622
 C2227 C 0.49927 0.36177 0.43707
 C2228 C 0.48055 0.34569 0.44832
 C2229 C 0.46536 0.35318 0.47059
 C2230 C 0.46957 0.37841 0.48158
 C2231 C 0.48867 0.39545 0.47012
 C2232 C 0.50373 0.38681 0.44755
 H2233 H 0.45276 0.29684 0.45033
 H2234 H 0.46364 0.26131 0.41756
 H2235 H 0.52337 0.31186 0.38143
 H2236 H 0.45077 0.34013 0.47914
 H2237 H 0.45776 0.38472 0.49878
 H2238 H 0.51852 0.39917 0.43829
 C2239 C -0.00765 0.30491 0.59045
 C2240 C 0.00576 0.29876 0.56717
 C2241 C 0.01731 0.27350 0.56210
 C2242 C 0.01555 0.25388 0.58204
 C2243 C 0.00163 0.25929 0.60651
 C2244 C -0.01018 0.28552 0.61039
 O2245 O -0.01515 0.33073 0.59223
 C2246 C -0.00620 0.34105 0.56959
 C2247 C 0.00676 0.32230 0.55358
 C2248 C 0.01904 0.32892 0.52966
 C2249 C 0.01773 0.35596 0.52178
 C2250 C 0.00439 0.37584 0.53784
 C2251 C -0.00779 0.36808 0.56213
 H2252 H 0.02860 0.26942 0.54398
 H2253 H 0.02664 0.23505 0.57879
 H2254 H -0.01941 0.29122 0.62918
 H2255 H 0.02947 0.31384 0.51759
 H2256 H 0.02717 0.36132 0.50315
 H2257 H -0.01791 0.38263 0.57506
 C2258 C 0.50146 0.82372 0.08313
 C2259 C 0.49031 0.84108 0.10160
 C2260 C 0.48054 0.83274 0.12599
 C2261 C 0.48207 0.80528 0.13164
 C2262 C 0.49257 0.78617 0.11282
 C2263 C 0.50330 0.79604 0.08839
 O2264 O 0.50981 0.83623 0.06126
 C2265 C 0.50366 0.86200 0.06619
 C2266 C 0.49178 0.86585 0.09070
 C2267 C 0.48362 0.89092 0.10024
 C2268 C 0.48750 0.91310 0.08375
 C2269 C 0.49936 0.91008 0.05804
 C2270 C 0.50782 0.88398 0.04927
 H2271 H 0.47224 0.84693 0.14036
 H2272 H 0.47498 0.79893 0.15094
 H2273 H 0.51316 0.78276 0.07410
 H2274 H 0.47441 0.89334 0.11969
 H2275 H 0.48105 0.93268 0.09113
 H2276 H 0.51687 0.88086 0.02983
 C2277 C 0.50755 0.69003 0.08429
 C2278 C 0.48982 0.69407 0.06349
 C2279 C 0.47648 0.71863 0.05839
 C2280 C 0.48080 0.73969 0.07600
 C2281 C 0.49889 0.73644 0.09803
 C2282 C 0.51280 0.71097 0.10161
 O2283 O 0.51610 0.66451 0.08718
 C2284 C 0.50340 0.65217 0.06777
 C2285 C 0.48710 0.66943 0.05274
 C2286 C 0.47076 0.66075 0.03238
 C2287 C 0.47151 0.63323 0.02697
 C2288 C 0.48830 0.61474 0.04195
 C2289 C 0.50443 0.62453 0.06280
 H2290 H 0.46190 0.72106 0.04240
 H2291 H 0.46844 0.75798 0.07355
 H2292 H 0.52536 0.70661 0.11886
 H2293 H 0.45774 0.67467 0.02112
 H2294 H 0.45888 0.62641 0.01102
 H2295 H 0.51735 0.61113 0.07475
 C2296 C 0.00154 0.17143 0.59714
 C2297 C 0.02027 0.15634 0.61157
 C2298 C 0.03570 0.16688 0.63163
 C2299 C 0.03174 0.19421 0.63713
 C2300 C 0.01295 0.21090 0.62222
 C2301 C -0.00288 0.19869 0.60237
 O2302 O -0.01133 0.15724 0.57922
 C2303 C -0.00041 0.13262 0.58251
 C2304 C 0.01888 0.13108 0.60222
 C2305 C 0.03264 0.10735 0.60946
 C2306 C 0.02661 0.08421 0.59556
 C2307 C 0.00717 0.08508 0.57464
 C2308 C -0.00668 0.10977 0.56819
 H2309 H 0.04989 0.15435 0.64312
 H2310 H 0.04270 0.20187 0.65382
 H2311 H -0.01853 0.21009 0.59161
 H2312 H 0.04763 0.10668 0.62517
 H2313 H 0.03758 0.06569 0.60090
 H2314 H -0.02160 0.11123 0.55242
 C2315 C 0.50333 0.18855 0.40772
 C2316 C 0.52140 0.19156 0.42810
 C2317 C 0.53232 0.21583 0.43399
 C2318 C 0.52486 0.23775 0.41768
 C2319 C 0.50699 0.23519 0.39552
 C2320 C 0.49543 0.21005 0.39137
 O2321 O 0.49518 0.16378 0.40561
 C2322 C 0.50852 0.15088 0.42504
 C2323 C 0.52487 0.16696 0.43938
 C2324 C 0.54052 0.15759 0.46074
 C2325 C 0.53882 0.13058 0.46792
 C2326 C 0.52168 0.11367 0.45369
 C2327 C 0.50664 0.12400 0.43167
 H2328 H 0.54636 0.21775 0.45031
 H2329 H 0.53389 0.25665 0.42160
 H2330 H 0.48096 0.20667 0.37586
 H2331 H 0.55328 0.17066 0.47168
 H2332 H 0.55054 0.12300 0.48479
 H2333 H 0.49320 0.11177 0.42053
 C2334 C -0.00687 0.68526 0.91230
 C2335 C 0.01583 0.68686 0.92772
 C2336 C 0.03030 0.70995 0.92898
 C2337 C 0.02109 0.73212 0.91351
 C2338 C -0.00268 0.73139 0.89737
 C2339 C -0.01658 0.70701 0.89716
 O2340 O -0.01723 0.66129 0.91284
 C2341 C -0.00073 0.64736 0.92904
 C2342 C 0.01985 0.66202 0.93882
 C2343 C 0.03947 0.65109 0.95606
 C2344 C 0.03759 0.62409 0.96367
 C2345 C 0.01650 0.60858 0.95374
 C2346 C -0.00280 0.62053 0.93603
 H2347 H 0.04847 0.71068 0.94087
 H2348 H 0.03303 0.74971 0.91349
 H2349 H -0.03400 0.70392 0.88494
 H2350 H 0.05556 0.66292 0.96348
 H2351 H 0.05259 0.61527 0.97720
 H2352 H -0.01924 0.60941 0.92819
 C2353 C 0.23602 0.67220 0.94197
 C2354 C 0.24338 0.65222 0.92439
 C2355 C 0.25293 0.62699 0.93210
 C2356 C 0.25412 0.62147 0.95921
 C2357 C 0.24524 0.64073 0.97868
 C2358 C 0.23644 0.66694 0.96971
 O2359 O 0.22827 0.69503 0.92945
 C2360 C 0.23067 0.68886 0.90360
 C2361 C 0.23939 0.66269 0.89986
 C2362 C 0.24260 0.65104 0.87508
 C2363 C 0.23759 0.66724 0.85280
 C2364 C 0.23020 0.69499 0.85533
 C2365 C 0.22607 0.70588 0.88133
 H2366 H 0.25895 0.61184 0.91768
 H2367 H 0.26096 0.60141 0.96516
 H2368 H 0.22923 0.68218 0.98352
 H2369 H 0.24904 0.63016 0.87292
 H2370 H 0.24061 0.65807 0.83347
 H2371 H 0.22046 0.72688 0.88409
 C2372 C 0.74781 0.17612 0.44060
 C2373 C 0.77316 0.17316 0.42978
 C2374 C 0.79294 0.15541 0.43965
 C2375 C 0.78639 0.13945 0.46134
 C2376 C 0.76094 0.14259 0.47471
 C2377 C 0.74152 0.16195 0.46400
 O2378 O 0.73066 0.19040 0.42486
 C2379 C 0.74578 0.19643 0.40377
 C2380 C 0.77202 0.18653 0.40633
 C2381 C 0.79112 0.18801 0.38632
 C2382 C 0.78290 0.19977 0.36227
 C2383 C 0.75584 0.20944 0.35818
 C2384 C 0.73696 0.20846 0.37952
 H2385 H 0.81207 0.15216 0.42948
 H2386 H 0.80109 0.12356 0.46581
 H2387 H 0.72134 0.16405 0.47222
 H2388 H 0.81153 0.17968 0.38884
 H2389 H 0.79767 0.20071 0.34645
 H2390 H 0.71607 0.21523 0.37681
 C2391 C 0.25362 0.34465 0.42466
 C2392 C 0.27530 0.32653 0.42576
 C2393 C 0.29103 0.32224 0.44826
 C2394 C 0.28423 0.33719 0.47082
 C2395 C 0.26174 0.35615 0.47109
 C2396 C 0.24659 0.36033 0.44705
 O2397 O 0.24135 0.34497 0.40095
 C2398 C 0.25573 0.32661 0.38703
 C2399 C 0.27681 0.31506 0.40148
 C2400 C 0.29459 0.29541 0.39148
 C2401 C 0.29019 0.28661 0.36559
 C2402 C 0.26811 0.29723 0.35010
 C2403 C 0.25085 0.31804 0.36086
 H2404 H 0.30810 0.30789 0.44846
 H2405 H 0.29684 0.33420 0.48831
 H2406 H 0.23049 0.37558 0.44538
 H2407 H 0.31112 0.28685 0.40334
 H2408 H 0.30394 0.27107 0.35780
 H2409 H 0.23380 0.32652 0.34966
 C2410 C 0.75836 0.84599 0.92019
 C2411 C 0.74023 0.82630 0.92316
 C2412 C 0.72745 0.82126 0.94718
 C2413 C 0.73320 0.83753 0.96895
 C2414 C 0.75154 0.85869 0.96673
 C2415 C 0.76482 0.86207 0.94169
 O2416 O 0.76833 0.84751 0.89561
 C2417 C 0.75617 0.82829 0.88275
 C2418 C 0.73888 0.81463 0.89885
 C2419 C 0.72456 0.79325 0.88987
 C2420 C 0.72835 0.78545 0.86331
 C2421 C 0.74588 0.79923 0.84619
 C2422 C 0.75986 0.82118 0.85594
 H2423 H 0.71330 0.80549 0.94907
 H2424 H 0.72290 0.83399 0.98759
 H2425 H 0.77991 0.87653 0.93834
 H2426 H 0.71122 0.78270 0.90293
 H2427 H 0.71765 0.76857 0.85599
 H2428 H 0.77365 0.83174 0.84336
 C2429 C 0.75006 0.84320 0.06147
 C2430 C 0.76727 0.82109 0.05886
 C2431 C 0.78202 0.81596 0.03569
 C2432 C 0.77882 0.83439 0.01443
 C2433 C 0.76079 0.85748 0.01624
 C2434 C 0.74603 0.86125 0.04052
 O2435 O 0.73813 0.84491 0.08513
 C2436 C 0.74792 0.82326 0.09786
 C2437 C 0.76563 0.80778 0.08258
 C2438 C 0.77768 0.78380 0.09184
 C2439 C 0.77138 0.77564 0.11789
 C2440 C 0.75376 0.79166 0.13415
 C2441 C 0.74187 0.81584 0.12403
 H2442 H 0.79559 0.79843 0.03405
 H2443 H 0.79026 0.83063 -0.00366
 H2444 H 0.73120 0.87732 0.04370
 H2445 H 0.79139 0.77180 0.07949
 H2446 H 0.78066 0.75713 0.12567
 H2447 H 0.72837 0.82838 0.13612
 C2448 C 0.26137 0.34583 0.56956
 C2449 C 0.25068 0.32133 0.56578
 C2450 C 0.24288 0.31221 0.54112
 C2451 C 0.24627 0.32896 0.51915
 C2452 C 0.25825 0.35429 0.52155
 C2453 C 0.26513 0.36302 0.54768
 O2454 O 0.26626 0.35070 0.59522
 C2455 C 0.25842 0.32867 0.60769
 C2456 C 0.24869 0.31031 0.59031
 C2457 C 0.23867 0.28619 0.59838
 C2458 C 0.23873 0.28042 0.62559
 C2459 C 0.24874 0.29861 0.64454
 C2460 C 0.25886 0.32325 0.63532
 H2461 H 0.23374 0.29309 0.53894
 H2462 H 0.23871 0.32223 0.50024
 H2463 H 0.27245 0.38277 0.55101
 H2464 H 0.23101 0.27221 0.58417
 H2465 H 0.23104 0.26141 0.63172
 H2466 H 0.26656 0.33763 0.64908
 C2467 C 0.75327 0.16649 0.55989
 C2468 C 0.74528 0.14765 0.57790
 C2469 C 0.73698 0.12271 0.57095
 C2470 C 0.73769 0.11621 0.54417
 C2471 C 0.74673 0.13438 0.52430
 C2472 C 0.75435 0.16034 0.53246
 O2473 O 0.76035 0.18902 0.57177
 C2474 C 0.75683 0.18382 0.59771
 C2475 C 0.74797 0.15853 0.60207
 C2476 C 0.74374 0.14775 0.62705
 C2477 C 0.74779 0.16402 0.64883
 C2478 C 0.75539 0.19097 0.64561
 C2479 C 0.76073 0.20093 0.61953
 H2480 H 0.73077 0.10838 0.58575
 H2481 H 0.73224 0.09619 0.53890
 H2482 H 0.76205 0.17458 0.51838
 H2483 H 0.73733 0.12749 0.62972
 H2484 H 0.74421 0.15560 0.66837
 H2485 H 0.76667 0.22128 0.61638
 C2486 C 0.24329 0.68101 0.06438
 C2487 C 0.21887 0.67714 0.07629
 C2488 C 0.19949 0.66162 0.06529
 C2489 C 0.20589 0.64807 0.04176
 C2490 C 0.23121 0.65074 0.02844
 C2491 C 0.24946 0.66908 0.03964
 O2492 O 0.26033 0.69315 0.08045
 C2493 C 0.24623 0.69668 0.10295
 C2494 C 0.22070 0.68722 0.10114
 C2495 C 0.20329 0.68580 0.12270
 C2496 C 0.21243 0.69449 0.14732
 C2497 C 0.23861 0.70443 0.15023
 C2498 C 0.25572 0.70602 0.12754
 H2499 H 0.18085 0.65808 0.07575
 H2500 H 0.19137 0.63393 0.03606
 H2501 H 0.26931 0.67125 0.03109
 H2502 H 0.18356 0.67758 0.12080
 H2503 H 0.19902 0.69333 0.16429
 H2504 H 0.27599 0.71301 0.12928
 C2505 C 0.16459 0.57662 0.73826
 C2506 C 0.14887 0.59283 0.72185
 C2507 C 0.12776 0.58338 0.70716
 C2508 C 0.12166 0.55644 0.71054
 C2509 C 0.13657 0.53874 0.72854
 C2510 C 0.15924 0.54959 0.74158
 O2511 O 0.18268 0.58990 0.75184
 C2512 C 0.17800 0.61514 0.74395
 C2513 C 0.15738 0.61800 0.72569
 C2514 C 0.14791 0.64282 0.71602
 C2515 C 0.16056 0.66559 0.72510
 C2516 C 0.18237 0.66330 0.74354
 C2517 C 0.19106 0.63753 0.75316
 H2518 H 0.11524 0.59670 0.69473
 H2519 H 0.10326 0.55076 0.70108
 H2520 H 0.17175 0.53866 0.75555
 H2521 H 0.13131 0.64461 0.70200
 H2522 H 0.15360 0.68496 0.71730
 H2523 H 0.20747 0.63495 0.76732
 C2524 C 0.65814 0.07608 0.24294
 C2525 C 0.67927 0.07078 0.26019
 C2526 C 0.68572 0.04564 0.27058
 C2527 C 0.66947 0.02494 0.26330
 C2528 C 0.64716 0.02917 0.24544
 C2529 C 0.64141 0.05555 0.23528
 O2530 O 0.65561 0.10185 0.23596
 C2531 C 0.67558 0.11279 0.24921
 C2532 C 0.69040 0.09450 0.26443
 C2533 C 0.71193 0.10118 0.28029
 C2534 C 0.71913 0.12786 0.27998
 C2535 C 0.70495 0.14731 0.26380
 C2536 C 0.68246 0.13967 0.24851
 H2537 H 0.70231 0.04217 0.28440
 H2538 H 0.67372 0.00552 0.27248
 H2539 H 0.62390 0.06038 0.22304
 H2540 H 0.72303 0.08630 0.29226
 H2541 H 0.73623 0.13314 0.29196
 H2542 H 0.67127 0.15391 0.23588
 C2543 C 0.82958 0.05896 0.76231
 C2544 C 0.81340 0.05598 0.74052
 C2545 C 0.81353 0.03210 0.72643
 C2546 C 0.83209 0.01120 0.73428
 C2547 C 0.85084 0.01426 0.75563
 C2548 C 0.84736 0.03831 0.77087
 O2549 O 0.82752 0.08332 0.77268
 C2550 C 0.80967 0.09620 0.75701
 C2551 C 0.80007 0.08041 0.73710
 C2552 C 0.78151 0.09039 0.71820
 C2553 C 0.77279 0.11764 0.71985
 C2554 C 0.78307 0.13444 0.73982
 C2555 C 0.80165 0.12328 0.75874
 H2556 H 0.80023 0.02977 0.70958
 H2557 H 0.83180 -0.00734 0.72335
 H2558 H 0.85844 0.04209 0.78876
 H2559 H 0.77420 0.07776 0.70260
 H2560 H 0.75853 0.12574 0.70523
 H2561 H 0.80987 0.13537 0.77433
 C2562 C 0.35122 0.56164 0.25602
 C2563 C 0.32890 0.55763 0.24058
 C2564 C 0.32235 0.53281 0.23143
 C2565 C 0.33940 0.51099 0.23848
 C2566 C 0.36251 0.51368 0.25526
 C2567 C 0.36887 0.53996 0.26327
 O2568 O 0.35339 0.58729 0.26239
 C2569 C 0.33191 0.59940 0.25069
 C2570 C 0.31649 0.58202 0.23698
 C2571 C 0.29303 0.58998 0.22339
 C2572 C 0.28458 0.61705 0.22447
 C2573 C 0.29955 0.63557 0.23905
 C2574 C 0.32391 0.62660 0.25199
 H2575 H 0.30489 0.53034 0.21887
 H2576 H 0.33468 0.49187 0.23010
 H2577 H 0.38717 0.54357 0.27413
 H2578 H 0.28135 0.57575 0.21272
 H2579 H 0.26602 0.62339 0.21440
 H2580 H 0.33572 0.64010 0.26346
 C2581 C 0.35105 0.41897 0.25043
 C2582 C 0.33096 0.42170 0.26922
 C2583 C 0.32679 0.44416 0.28479
 C2584 C 0.34384 0.46508 0.28074
 C2585 C 0.36458 0.46387 0.26093
 C2586 C 0.36863 0.43987 0.24593
 O2587 O 0.35113 0.39534 0.23816
 C2588 C 0.33054 0.38327 0.24954
 C2589 C 0.31774 0.39879 0.26862
 C2590 C 0.29571 0.39083 0.28312
 C2591 C 0.28612 0.36569 0.27772
 C2592 C 0.29856 0.34886 0.25806
 C2593 C 0.32136 0.35775 0.24384
 H2594 H 0.31094 0.44554 0.29965
 H2595 H 0.34076 0.48269 0.29305
 H2596 H 0.38490 0.43726 0.23171
 H2597 H 0.28614 0.40359 0.29808
 H2598 H 0.26898 0.35933 0.28914
 H2599 H 0.33132 0.34542 0.22877
 C2600 C 0.83499 0.92770 0.76174
 C2601 C 0.85624 0.90907 0.76146
 C2602 C 0.88289 0.91584 0.76271
 C2603 C 0.88808 0.94302 0.76342
 C2604 C 0.86692 0.96352 0.76216
 C2605 C 0.83969 0.95524 0.76265
 O2606 O 0.81113 0.91651 0.76031
 C2607 C 0.81775 0.89036 0.75893
 C2608 C 0.84516 0.88491 0.75957
 C2609 C 0.85687 0.85920 0.75759
 C2610 C 0.83963 0.83803 0.75464
 C2611 C 0.81116 0.84276 0.75388
 C2612 C 0.80005 0.86942 0.75630
 H2613 H 0.89925 0.90070 0.76307
 H2614 H 0.90895 0.94783 0.76512
 H2615 H 0.82260 0.96941 0.76366
 H2616 H 0.87858 0.85558 0.75801
 H2617 H 0.84854 0.81789 0.75304
 H2618 H 0.77845 0.87376 0.75560
 C2619 C 0.65739 0.93229 0.24195
 C2620 C 0.67825 0.93535 0.22428
 C2621 C 0.68333 0.95942 0.21206
 C2622 C 0.66661 0.98155 0.21866
 C2623 C 0.64545 0.97991 0.23793
 C2624 C 0.64010 0.95429 0.24878
 O2625 O 0.65640 0.90725 0.25105
 C2626 C 0.67718 0.89456 0.23889
 C2627 C 0.69104 0.91098 0.22226
 C2628 C 0.71363 0.90231 0.20777
 C2629 C 0.72263 0.87550 0.21068
 C2630 C 0.70902 0.85790 0.22787
 C2631 C 0.68573 0.86763 0.24203
 H2632 H 0.69960 0.96113 0.19783
 H2633 H 0.67034 1.00029 0.20866
 H2634 H 0.62300 0.95133 0.26167
 H2635 H 0.72414 0.91580 0.19485
 H2636 H 0.74032 0.86854 0.19959
 H2637 H 0.67492 0.85483 0.25541
 C2638 C 0.16544 0.44385 0.73158
 C2639 C 0.18508 0.44634 0.75046
 C2640 C 0.18582 0.46857 0.76682
 C2641 C 0.16587 0.48922 0.76315
 C2642 C 0.14617 0.48857 0.74233
 C2643 C 0.14609 0.46448 0.72695
 O2644 O 0.16627 0.41997 0.72004
 C2645 C 0.18711 0.40712 0.73179
 C2646 C 0.19957 0.42248 0.75038
 C2647 C 0.22146 0.41271 0.76552
 C2648 C 0.23061 0.38599 0.76154
 C2649 C 0.21745 0.36957 0.74318
 C2650 C 0.19547 0.38029 0.72799
 H2651 H 0.20038 0.46938 0.78284
 H2652 H 0.16478 0.50471 0.77804
 H2653 H 0.13096 0.46056 0.71229
 H2654 H 0.23086 0.42507 0.78016
 H2655 H 0.24719 0.37769 0.77354
 H2656 H 0.18480 0.36794 0.71425
 C2657 C 0.05807 0.75101 0.84053
 C2658 C 0.06411 0.77749 0.83937
 C2659 C 0.04746 0.79781 0.84978
 C2660 C 0.02340 0.79073 0.86192
 C2661 C 0.01595 0.76340 0.86370
 C2662 C 0.03421 0.74334 0.85277
 O2663 O 0.07713 0.73487 0.82965
 C2664 C 0.09557 0.75170 0.82158
 C2665 C 0.08847 0.77801 0.82723
 C2666 C 0.10500 0.79902 0.82164
 C2667 C 0.13008 0.79270 0.80990
 C2668 C 0.13793 0.76585 0.80368
 C2669 C 0.12040 0.74497 0.80935
 H2670 H 0.05290 0.81852 0.84876
 H2671 H 0.01117 0.80709 0.87004
 H2672 H 0.02983 0.72233 0.85372
 H2673 H 0.09901 0.81950 0.82658
 H2674 H 0.14356 0.80868 0.80574
 H2675 H 0.12626 0.72427 0.80516
 C2676 C 0.57290 0.25384 0.34581
 C2677 C 0.57003 0.27182 0.32514
 C2678 C 0.54642 0.28739 0.32088
 C2679 C 0.52484 0.28403 0.33858
 C2680 C 0.52683 0.26502 0.35999
 C2681 C 0.55167 0.24969 0.36311
 O2682 O 0.59689 0.24092 0.34658
 C2683 C 0.60952 0.25084 0.32576
 C2684 C 0.59386 0.26961 0.31173
 C2685 C 0.60275 0.28172 0.28852
 C2686 C 0.62889 0.27435 0.27965
 C2687 C 0.64552 0.25563 0.29428
 C2688 C 0.63579 0.24373 0.31769
 H2689 H 0.54459 0.30148 0.30443
 H2690 H 0.50623 0.29585 0.33535
 H2691 H 0.55490 0.23406 0.37778
 H2692 H 0.59003 0.29620 0.27761
 H2693 H 0.63648 0.28361 0.26173
 H2694 H 0.64820 0.22936 0.32907
 C2695 C 0.56937 0.75692 0.14792
 C2696 C 0.56442 0.76267 0.17422
 C2697 C 0.53870 0.76522 0.18492
 C2698 C 0.51690 0.76187 0.16784
 C2699 C 0.52076 0.75592 0.14026
 C2700 C 0.54776 0.75402 0.13022
 O2701 O 0.59571 0.75510 0.14223
 C2702 C 0.60744 0.75996 0.16553
 C2703 C 0.58896 0.76500 0.18551
 C2704 C 0.59620 0.77113 0.21133
 C2705 C 0.62372 0.77164 0.21713
 C2706 C 0.64368 0.76568 0.19736
 C2707 C 0.63531 0.75988 0.17098
 H2708 H 0.53546 0.76991 0.20574
 H2709 H 0.49689 0.76466 0.17627
 H2710 H 0.55176 0.75077 0.10926
 H2711 H 0.58114 0.77518 0.22660
 H2712 H 0.62936 0.77592 0.23745
 H2713 H 0.64989 0.75519 0.15544
 C2714 C 0.07590 0.26059 0.65389
 C2715 C 0.06912 0.27672 0.67515
 C2716 C 0.04256 0.28273 0.68257
 C2717 C 0.02215 0.27105 0.66794
 C2718 C 0.02843 0.25307 0.64656
 C2719 C 0.05590 0.24939 0.63858
 O2720 O 0.10235 0.25571 0.65144
 C2721 C 0.11245 0.26896 0.67170
 C2722 C 0.09297 0.28239 0.68665
 C2723 C 0.09888 0.29615 0.70974
 C2724 C 0.12589 0.29543 0.71819
 C2725 C 0.14632 0.28080 0.70373
 C2726 C 0.13943 0.26799 0.67971
 H2727 H 0.03771 0.29554 0.69937
 H2728 H 0.00144 0.27595 0.67355
 H2729 H 0.06164 0.23704 0.62169
 H2730 H 0.08313 0.30631 0.72134
 H2731 H 0.13060 0.30532 0.73663
 H2732 H 0.15430 0.25629 0.66836
 C2733 C 0.93206 0.23605 0.65587
 C2734 C 0.93688 0.22297 0.67969
 C2735 C 0.96257 0.21653 0.68920
 C2736 C 0.98435 0.22352 0.67339
 C2737 C 0.98050 0.23678 0.64826
 C2738 C 0.95358 0.24285 0.63937
 O2739 O 0.90584 0.24092 0.65119
 C2740 C 0.89407 0.23060 0.67255
 C2741 C 0.91227 0.21914 0.69036
 C2742 C 0.90467 0.20729 0.71414
 C2743 C 0.87711 0.20798 0.72033
 C2744 C 0.85772 0.22070 0.70296
 C2745 C 0.86642 0.23168 0.67837
 H2746 H 0.96579 0.20637 0.70814
 H2747 H 1.00445 0.21814 0.68061
 H2748 H 0.94935 0.25189 0.62009
 H2749 H 0.91950 0.19834 0.72775
 H2750 H 0.87108 0.19950 0.73921
 H2751 H 0.85230 0.24172 0.66472
 C2752 C 0.42274 0.74840 0.14762
 C2753 C 0.42664 0.72566 0.16288
 C2754 C 0.45149 0.71194 0.16535
 C2755 C 0.47346 0.72228 0.15187
 C2756 C 0.47066 0.74624 0.13624
 C2757 C 0.44425 0.75867 0.13329
 O2758 O 0.39770 0.75919 0.14940
 C2759 C 0.38566 0.74285 0.16626
 C2760 C 0.40256 0.72191 0.17480
 C2761 C 0.39485 0.70295 0.19326
 C2762 C 0.36885 0.70602 0.20398
 C2763 C 0.35107 0.72796 0.19644
 C2764 C 0.35944 0.74633 0.17671
 H2765 H 0.45403 0.69414 0.17769
 H2766 H 0.49293 0.71179 0.15408
 H2767 H 0.44043 0.77600 0.12059
 H2768 H 0.40862 0.68673 0.19970
 H2769 H 0.36286 0.69158 0.21880
 H2770 H 0.34658 0.76346 0.17080
 C2771 C 0.43208 0.26245 0.34079
 C2772 C 0.43784 0.24584 0.31969
 C2773 C 0.46301 0.23305 0.31604
 C2774 C 0.48303 0.23751 0.33504
 C2775 C 0.47801 0.25496 0.35716
 C2776 C 0.45185 0.26793 0.35934
 O2777 O 0.40659 0.27184 0.34128
 C2778 C 0.39601 0.26099 0.31989
 C2779 C 0.41441 0.24520 0.30575
 C2780 C 0.40777 0.23225 0.28239
 C2781 C 0.38101 0.23554 0.27342
 C2782 C 0.36159 0.25098 0.28819
 C2783 C 0.36913 0.26391 0.31175
 H2784 H 0.46702 0.21980 0.29939
 H2785 H 0.50260 0.22722 0.33263
 H2786 H 0.44635 0.28208 0.37470
 H2787 H 0.42261 0.22005 0.27153
 H2788 H 0.37517 0.22549 0.25540
 H2789 H 0.35454 0.27578 0.32329
 C2790 C 0.92052 0.74002 0.84768
 C2791 C 0.92736 0.73513 0.82167
 C2792 C 0.95367 0.73549 0.81229
 C2793 C 0.97398 0.74149 0.83039
 C2794 C 0.96797 0.74647 0.85780
 C2795 C 0.94049 0.74497 0.86631
 O2796 O 0.89395 0.74154 0.85181
 C2797 C 0.88381 0.73751 0.82772
 C2798 C 0.90360 0.73321 0.80874
 C2799 C 0.89804 0.73010 0.78196
 C2800 C 0.87101 0.73212 0.77419
 C2801 C 0.84998 0.73763 0.79299
 C2802 C 0.85644 0.73965 0.82038
 H2803 H 0.95831 0.73234 0.79143
 H2804 H 0.99399 0.74282 0.82231
 H2805 H 0.93473 0.74883 0.88679
 H2806 H 0.91401 0.72692 0.76744
 H2807 H 0.86654 0.73007 0.75319
 H2808 H 0.84097 0.74423 0.83511
   
