data_POSCAR
  _audit_creation_date              2014-09-24
  _audit_creation_method            'ToBaCCo'
  _symmetry_space_group_name_H-M    'P1'
  _symmetry_Int_Tables_number       1
  _symmetry_cell_setting            triclinic
  loop_
  _symmetry_equiv_pos_as_xyz
 x,y,z
_cell_length_a 98.9695
_cell_length_b 98.9154
_cell_length_c 99.7416
_cell_angle_alpha 89.988800
_cell_angle_beta 89.951000
_cell_angle_gamma 89.951600
loop_
  _atom_site_label
  _atom_site_type_symbol
  _atom_site_fract_x
  _atom_site_fract_y
  _atom_site_fract_z
N1 N 0.35705 0.31960 0.32972
 N2 N 0.35668 0.32893 0.32031
 C3 C 0.36705 0.32694 0.31178
 C4 C 0.37420 0.31581 0.31612
 C5 C 0.36766 0.31136 0.32749
 H6 H 0.36924 0.33304 0.30305
 H7 H 0.37037 0.30277 0.33362
 Cu8 Cu 0.34262 0.34267 0.32009
 Cu9 Cu 0.34369 0.31875 0.34402
 Cu10 Cu 0.31882 0.34346 0.34420
 N11 N 0.32878 0.35665 0.32050
 N12 N 0.31952 0.35691 0.32996
 C13 C 0.31121 0.36750 0.32785
 C14 C 0.31556 0.37413 0.31649
 C15 C 0.32669 0.36707 0.31204
 H16 H 0.30265 0.37014 0.33406
 H17 H 0.33275 0.36934 0.30330
 N18 N 0.31982 0.32898 0.35774
 N19 N 0.32930 0.31956 0.35766
 C20 C 0.32723 0.31111 0.36806
 C21 C 0.31596 0.31546 0.37491
 C22 C 0.31147 0.32676 0.36819
 H23 H 0.33340 0.30242 0.37047
 H24 H 0.30276 0.33285 0.37072
 H25 H 0.32819 0.32810 0.33367
 H26 H 0.33928 0.33920 0.34406
 N27 N 0.35721 0.81991 -0.17053
 N28 N 0.35691 0.82922 -0.17995
 C29 C 0.36729 0.82717 -0.18846
 C30 C 0.37436 0.81601 -0.18406
 C31 C 0.36778 0.81161 -0.17271
 H32 H 0.36952 0.83325 -0.19720
 H33 H 0.37043 0.80300 -0.16655
 Cu34 Cu 0.34287 0.84300 -0.18020
 Cu35 Cu 0.34381 0.81909 -0.15627
 Cu36 Cu 0.31893 0.84378 -0.15623
 N37 N 0.32904 0.85698 -0.17988
 N38 N 0.31970 0.85722 -0.17048
 C39 C 0.31140 0.86779 -0.17262
 C40 C 0.31584 0.87444 -0.18393
 C41 C 0.32701 0.86741 -0.18833
 H42 H 0.30279 0.87042 -0.16646
 H43 H 0.33314 0.86971 -0.19702
 N44 N 0.31988 0.82931 -0.14267
 N45 N 0.32938 0.81993 -0.14268
 C46 C 0.32731 0.81151 -0.13225
 C47 C 0.31600 0.81584 -0.12545
 C48 C 0.31150 0.82711 -0.13223
 H49 H 0.33350 0.80285 -0.12979
 H50 H 0.30276 0.83319 -0.12974
 H51 H 0.32834 0.82845 -0.16671
 H52 H 0.33935 0.83956 -0.15625
 N53 N 0.85679 0.32040 -0.17064
 N54 N 0.85674 0.33004 -0.17973
 C55 C 0.86707 0.32801 -0.18831
 C56 C 0.87386 0.31653 -0.18434
 C57 C 0.86715 0.31191 -0.17313
 H58 H 0.86946 0.33434 -0.19682
 H59 H 0.86960 0.30304 -0.16726
 Cu60 Cu 0.84315 0.34427 -0.17956
 Cu61 Cu 0.84340 0.31952 -0.15635
 Cu62 Cu 0.81865 0.34432 -0.15614
 N63 N 0.82892 0.35787 -0.17949
 N64 N 0.81938 0.35783 -0.17029
 C65 C 0.81084 0.36819 -0.17257
 C66 C 0.81533 0.37499 -0.18377
 C67 C 0.82678 0.36827 -0.18797
 H68 H 0.80205 0.37056 -0.16658
 H69 H 0.83301 0.37074 -0.19653
 N70 N 0.81957 0.32982 -0.14264
 N71 N 0.82900 0.32035 -0.14272
 C72 C 0.82685 0.31190 -0.13233
 C73 C 0.81558 0.31632 -0.12550
 C74 C 0.81119 0.32765 -0.13221
 H75 H 0.83296 0.30317 -0.12991
 H76 H 0.80251 0.33379 -0.12969
 H77 H 0.82830 0.32927 -0.16693
 H78 H 0.83909 0.33994 -0.15580
 N79 N 0.85679 0.82017 0.32951
 N80 N 0.85667 0.82985 0.32045
 C81 C 0.86701 0.82791 0.31186
 C82 C 0.87387 0.81646 0.31580
 C83 C 0.86720 0.81176 0.32700
 H84 H 0.86937 0.83428 0.30336
 H85 H 0.86970 0.80289 0.33284
 Cu86 Cu 0.84298 0.84396 0.32068
 Cu87 Cu 0.84338 0.81917 0.34378
 Cu88 Cu 0.81849 0.84387 0.34408
 N89 N 0.82878 0.85757 0.32082
 N90 N 0.81921 0.85748 0.32999
 C91 C 0.81069 0.86786 0.32774
 C92 C 0.81521 0.87473 0.31659
 C93 C 0.82667 0.86802 0.31240
 H94 H 0.80187 0.87021 0.33372
 H95 H 0.83293 0.87054 0.30386
 N96 N 0.81946 0.82927 0.35750
 N97 N 0.82895 0.81986 0.35740
 C98 C 0.82689 0.81139 0.36779
 C99 C 0.81561 0.81571 0.37465
 C100 C 0.81111 0.82702 0.36795
 H101 H 0.83309 0.80272 0.37020
 H102 H 0.80242 0.83312 0.37052
 H103 H 0.82821 0.82888 0.33329
 H104 H 0.83894 0.83957 0.34442
 N105 N 0.64298 0.68050 0.32982
 N106 N 0.64328 0.67114 0.32045
 C107 C 0.63289 0.67317 0.31195
 C108 C 0.62581 0.68434 0.31628
 C109 C 0.63240 0.68879 0.32760
 H110 H 0.63062 0.66704 0.30327
 H111 H 0.62972 0.69740 0.33373
 Cu112 Cu 0.65726 0.65733 0.32024
 Cu113 Cu 0.65637 0.68131 0.34410
 Cu114 Cu 0.68117 0.65650 0.34415
 N115 N 0.67109 0.64335 0.32049
 N116 N 0.68041 0.64307 0.32988
 C117 C 0.68872 0.63250 0.32769
 C118 C 0.68431 0.62589 0.31636
 C119 C 0.67315 0.63295 0.31200
 H120 H 0.69730 0.62984 0.33385
 H121 H 0.66706 0.63065 0.30331
 N122 N 0.68023 0.67095 0.35772
 N123 N 0.67079 0.68041 0.35770
 C124 C 0.67293 0.68881 0.36812
 C125 C 0.68420 0.68439 0.37492
 C126 C 0.68861 0.67310 0.36815
 H127 H 0.66681 0.69752 0.37059
 H128 H 0.69730 0.66697 0.37064
 H129 H 0.67179 0.67190 0.33370
 H130 H 0.66074 0.66087 0.34419
 N131 N 0.64331 0.17990 -0.17025
 N132 N 0.64343 0.17042 -0.17951
 C133 C 0.63303 0.17246 -0.18798
 C134 C 0.62609 0.18376 -0.18373
 C135 C 0.63282 0.18828 -0.17250
 H136 H 0.63067 0.16625 -0.19658
 H137 H 0.63030 0.19701 -0.16646
 Cu138 Cu 0.65729 0.15646 -0.17965
 Cu139 Cu 0.65678 0.18069 -0.15605
 Cu140 Cu 0.68151 0.15581 -0.15611
 N141 N 0.67122 0.14257 -0.17962
 N142 N 0.68068 0.14239 -0.17035
 C143 C 0.68905 0.13190 -0.17263
 C144 C 0.68455 0.12525 -0.18390
 C145 C 0.67326 0.13220 -0.18814
 H146 H 0.69776 0.12935 -0.16658
 H147 H 0.66706 0.12989 -0.19677
 N148 N 0.68067 0.17026 -0.14253
 N149 N 0.67127 0.17976 -0.14252
 C150 C 0.67350 0.18816 -0.13211
 C151 C 0.68478 0.18369 -0.12536
 C152 C 0.68911 0.17237 -0.13215
 H153 H 0.66742 0.19690 -0.12963
 H154 H 0.69779 0.16620 -0.12970
 H155 H 0.67202 0.17115 -0.16659
 H156 H 0.66110 0.16028 -0.15580
 N157 N 0.14281 0.68022 -0.17006
 N158 N 0.14290 0.67055 -0.17911
 C159 C 0.13255 0.67251 -0.18767
 C160 C 0.12572 0.68398 -0.18370
 C161 C 0.13242 0.68865 -0.17253
 H162 H 0.13017 0.66615 -0.19616
 H163 H 0.12995 0.69753 -0.16669
 Cu164 Cu 0.15658 0.65642 -0.17891
 Cu165 Cu 0.15623 0.68124 -0.15584
 Cu166 Cu 0.18110 0.65654 -0.15555
 N167 N 0.17082 0.64285 -0.17880
 N168 N 0.18036 0.64294 -0.16962
 C169 C 0.18890 0.63259 -0.17188
 C170 C 0.18444 0.62572 -0.18303
 C171 C 0.17298 0.63242 -0.18722
 H172 H 0.19771 0.63025 -0.16590
 H173 H 0.16676 0.62989 -0.19577
 N174 N 0.18014 0.67115 -0.14215
 N175 N 0.17067 0.68057 -0.14228
 C176 C 0.17277 0.68910 -0.13196
 C177 C 0.18405 0.68480 -0.12511
 C178 C 0.18851 0.67344 -0.13175
 H179 H 0.16660 0.69780 -0.12958
 H180 H 0.19721 0.66735 -0.12918
 H181 H 0.17139 0.67149 -0.16638
 H182 H 0.16066 0.66082 -0.15518
 N183 N 0.14289 0.18064 0.32999
 N184 N 0.14324 0.17129 0.32062
 C185 C 0.13284 0.17326 0.31212
 C186 C 0.12571 0.18440 0.31646
 C187 C 0.13228 0.18887 0.32778
 H188 H 0.13063 0.16712 0.30342
 H189 H 0.12958 0.19749 0.33390
 Cu190 Cu 0.15729 0.15753 0.32036
 Cu191 Cu 0.15629 0.18153 0.34424
 Cu192 Cu 0.18113 0.15680 0.34439
 N193 N 0.17110 0.14355 0.32077
 N194 N 0.18040 0.14330 0.33019
 C195 C 0.18869 0.13270 0.32808
 C196 C 0.18431 0.12604 0.31676
 C197 C 0.17317 0.13311 0.31233
 H198 H 0.19727 0.13007 0.33426
 H199 H 0.16710 0.13082 0.30362
 N200 N 0.18018 0.17132 0.35789
 N201 N 0.17071 0.18074 0.35782
 C202 C 0.17279 0.18920 0.36820
 C203 C 0.18406 0.18485 0.37504
 C204 C 0.18854 0.17354 0.36832
 H205 H 0.16661 0.19789 0.37063
 H206 H 0.19724 0.16744 0.37085
 H207 H 0.17174 0.17214 0.33385
 H208 H 0.16067 0.16107 0.34432
 N209 N 0.64337 0.31987 0.67021
 N210 N 0.64365 0.32919 0.67962
 C211 C 0.63325 0.32713 0.68811
 C212 C 0.62618 0.31598 0.68373
 C213 C 0.63280 0.31159 0.67238
 H214 H 0.63099 0.33322 0.69684
 H215 H 0.63016 0.30299 0.66622
 Cu216 Cu 0.65765 0.34299 0.67991
 Cu217 Cu 0.65679 0.31912 0.65592
 Cu218 Cu 0.68155 0.34390 0.65596
 N219 N 0.67147 0.35697 0.67968
 N220 N 0.68078 0.35726 0.67026
 C221 C 0.68909 0.36780 0.67245
 C222 C 0.68472 0.37440 0.68381
 C223 C 0.67355 0.36735 0.68820
 H224 H 0.69769 0.37044 0.66628
 H225 H 0.66747 0.36960 0.69693
 N226 N 0.68065 0.32952 0.64234
 N227 N 0.67123 0.32006 0.64232
 C228 C 0.67341 0.31169 0.63187
 C229 C 0.68470 0.31615 0.62510
 C230 C 0.68907 0.32741 0.63192
 H231 H 0.66732 0.30298 0.62938
 H232 H 0.69776 0.33356 0.62947
 H233 H 0.67218 0.32845 0.66638
 H234 H 0.66112 0.33955 0.65595
 N235 N 0.64307 0.81982 1.17027
 N236 N 0.64314 0.82930 1.17952
 C237 C 0.63274 0.82723 1.18800
 C238 C 0.62587 0.81589 1.18378
 C239 C 0.63262 0.81140 1.17254
 H240 H 0.63032 0.83342 1.19661
 H241 H 0.63013 0.80267 1.16652
 Cu242 Cu 0.65696 0.84327 1.17968
 Cu243 Cu 0.65654 0.81907 1.15604
 Cu244 Cu 0.68127 0.84394 1.15618
 N245 N 0.67086 0.85716 1.17968
 N246 N 0.68039 0.85733 1.17047
 C247 C 0.68875 0.86779 1.17284
 C248 C 0.68418 0.87445 1.18409
 C249 C 0.67285 0.86752 1.18822
 H250 H 0.69751 0.87035 1.16687
 H251 H 0.66661 0.86985 1.19682
 N252 N 0.68045 0.82952 1.14255
 N253 N 0.67104 0.82005 1.14249
 C254 C 0.67324 0.81171 1.13202
 C255 C 0.68453 0.81619 1.12527
 C256 C 0.68888 0.82745 1.13212
 H257 H 0.66715 0.80302 1.12949
 H258 H 0.69755 0.83362 1.12968
 H259 H 0.67175 0.82858 1.16659
 H260 H 0.66086 0.83950 1.15581
 N261 N 0.14320 0.31992 1.17021
 N262 N 0.14333 0.32931 1.17954
 C263 C 0.13290 0.32725 1.18799
 C264 C 0.12596 0.31599 1.18366
 C265 C 0.13269 0.31155 1.17239
 H266 H 0.13054 0.33341 1.19664
 H267 H 0.13017 0.30289 1.16626
 Cu268 Cu 0.15715 0.34330 1.17970
 Cu269 Cu 0.15670 0.31918 1.15599
 Cu270 Cu 0.18139 0.34405 1.15613
 N271 N 0.17106 0.35721 1.17970
 N272 N 0.18050 0.35746 1.17041
 C273 C 0.18880 0.36799 1.17269
 C274 C 0.18427 0.37462 1.18398
 C275 C 0.17303 0.36759 1.18823
 H276 H 0.19748 0.37059 1.16662
 H277 H 0.16681 0.36986 1.19686
 N278 N 0.18062 0.32962 1.14251
 N279 N 0.17121 0.32014 1.14246
 C280 C 0.17346 0.31176 1.13203
 C281 C 0.18476 0.31623 1.12530
 C282 C 0.18908 0.32752 1.13213
 H283 H 0.16738 0.30305 1.12951
 H284 H 0.19776 0.33369 1.12970
 H285 H 0.17192 0.32867 1.16655
 H286 H 0.16099 0.33960 1.15584
 N287 N 0.14328 0.81979 0.67020
 N288 N 0.14328 0.82942 0.67930
 C289 C 0.13289 0.82739 0.68781
 C290 C 0.12612 0.81594 0.68376
 C291 C 0.13291 0.81132 0.67259
 H292 H 0.13043 0.83373 0.69631
 H293 H 0.13048 0.80249 0.66668
 Cu294 Cu 0.15688 0.84362 0.67920
 Cu295 Cu 0.15670 0.81895 0.65596
 Cu296 Cu 0.18144 0.84373 0.65585
 N297 N 0.17107 0.85722 0.67920
 N298 N 0.18065 0.85721 0.67005
 C299 C 0.18914 0.86758 0.67239
 C300 C 0.18458 0.87437 0.68358
 C301 C 0.17314 0.86761 0.68769
 H302 H 0.19796 0.86998 0.66644
 H303 H 0.16686 0.87007 0.69623
 N304 N 0.18054 0.82926 0.64231
 N305 N 0.17112 0.81980 0.64236
 C306 C 0.17323 0.81140 0.63193
 C307 C 0.18447 0.81583 0.62508
 C308 C 0.18890 0.82712 0.63184
 H309 H 0.16708 0.80271 0.62948
 H310 H 0.19756 0.83327 0.62932
 H311 H 0.17177 0.82866 0.66658
 H312 H 0.16101 0.83937 0.65545
 N313 N 0.35659 0.68024 0.67010
 N314 N 0.35629 0.67092 0.67951
 C315 C 0.36666 0.67299 0.68802
 C316 C 0.37372 0.68416 0.68365
 C317 C 0.36713 0.68855 0.67229
 H318 H 0.36890 0.66690 0.69675
 H319 H 0.36978 0.69715 0.66614
 Cu320 Cu 0.34229 0.65712 0.67973
 Cu321 Cu 0.34327 0.68101 0.65576
 Cu322 Cu 0.31846 0.65627 0.65575
 N323 N 0.32844 0.64316 0.67950
 N324 N 0.31914 0.64291 0.67008
 C325 C 0.31080 0.63239 0.67225
 C326 C 0.31515 0.62576 0.68360
 C327 C 0.32632 0.63278 0.68800
 H328 H 0.30222 0.62976 0.66608
 H329 H 0.33239 0.63049 0.69672
 N330 N 0.31946 0.67065 0.64211
 N331 N 0.32891 0.68008 0.64211
 C332 C 0.32682 0.68845 0.63166
 C333 C 0.31557 0.68404 0.62484
 C334 C 0.31112 0.67278 0.63164
 H335 H 0.33296 0.69715 0.62919
 H336 H 0.30242 0.66667 0.62917
 H337 H 0.32782 0.67169 0.66619
 H338 H 0.33889 0.66059 0.65577
 N339 N 0.35685 0.18026 1.17020
 N340 N 0.35663 0.17094 1.17962
 C341 C 0.36706 0.17301 1.18805
 C342 C 0.37410 0.18417 1.18362
 C343 C 0.36742 0.18856 1.17231
 H344 H 0.36938 0.16691 1.19675
 H345 H 0.37003 0.19715 1.16613
 Cu346 Cu 0.34269 0.15709 1.17997
 Cu347 Cu 0.34339 0.18098 1.15598
 Cu348 Cu 0.31869 0.15612 1.15616
 N349 N 0.32892 0.14306 1.17981
 N350 N 0.31956 0.14273 1.17045
 C351 C 0.31132 0.13214 1.17269
 C352 C 0.31580 0.12555 1.18402
 C353 C 0.32695 0.13266 1.18833
 H354 H 0.30271 0.12945 1.16659
 H355 H 0.33309 0.13044 1.19702
 N356 N 0.31949 0.17054 1.14252
 N357 N 0.32890 0.18001 1.14245
 C358 C 0.32668 0.18837 1.13200
 C359 C 0.31539 0.18390 1.12528
 C360 C 0.31105 0.17262 1.13213
 H361 H 0.33277 0.19708 1.12947
 H362 H 0.30238 0.16645 1.12971
 H363 H 0.32806 0.17159 1.16652
 H364 H 0.33911 0.16054 1.15603
 N365 N 0.85664 0.68006 1.17051
 N366 N 0.85631 0.67070 1.17987
 C367 C 0.86661 0.67273 1.18846
 C368 C 0.87370 0.68391 1.18419
 C369 C 0.86717 0.68836 1.17281
 H370 H 0.86881 0.66658 1.19715
 H371 H 0.86987 0.69698 1.16669
 Cu372 Cu 0.84239 0.65683 1.17991
 Cu373 Cu 0.84335 0.68082 1.15610
 Cu374 Cu 0.81853 0.65603 1.15603
 N375 N 0.82854 0.64289 1.17974
 N376 N 0.81921 0.64264 1.17036
 C377 C 0.81089 0.63210 1.17256
 C378 C 0.81530 0.62546 1.18389
 C379 C 0.82647 0.63250 1.18824
 H380 H 0.80229 0.62946 1.16641
 H381 H 0.83259 0.63022 1.19693
 N382 N 0.81956 0.67043 1.14240
 N383 N 0.82901 0.67986 1.14240
 C384 C 0.82691 0.68824 1.13195
 C385 C 0.81564 0.68384 1.12515
 C386 C 0.81120 0.67258 1.13195
 H387 H 0.83304 0.69694 1.12949
 H388 H 0.80249 0.66647 1.12949
 H389 H 0.82788 0.67147 1.16649
 H390 H 0.83894 0.66043 1.15600
 N391 N 0.85693 0.17976 0.67001
 N392 N 0.85690 0.17008 0.67907
 C393 C 0.86721 0.17210 0.68764
 C394 C 0.87398 0.18359 0.68369
 C395 C 0.86727 0.18824 0.67251
 H396 H 0.86962 0.16574 0.69613
 H397 H 0.86970 0.19713 0.66666
 Cu398 Cu 0.84333 0.15586 0.67891
 Cu399 Cu 0.84354 0.18069 0.65576
 Cu400 Cu 0.81877 0.15596 0.65559
 N401 N 0.82906 0.14234 0.67887
 N402 N 0.81949 0.14244 0.66973
 C403 C 0.81092 0.13213 0.67206
 C404 C 0.81541 0.12529 0.68324
 C405 C 0.82690 0.13195 0.68735
 H406 H 0.80209 0.12981 0.66612
 H407 H 0.83314 0.12944 0.69589
 N408 N 0.81970 0.17047 0.64211
 N409 N 0.82913 0.17991 0.64216
 C410 C 0.82699 0.18837 0.63178
 C411 C 0.81572 0.18398 0.62497
 C412 C 0.81131 0.17267 0.63170
 H413 H 0.83313 0.19707 0.62935
 H414 H 0.80263 0.16655 0.62919
 H415 H 0.82849 0.17096 0.66639
 H416 H 0.83922 0.16028 0.65518
 N417 N 0.32033 0.35699 0.67099
 N418 N 0.32979 0.35660 0.68024
 C419 C 0.32787 0.36690 0.68888
 C420 C 0.31666 0.37403 0.68476
 C421 C 0.31208 0.36755 0.67341
 H422 H 0.33410 0.36906 0.69751
 H423 H 0.30340 0.37030 0.66742
 Cu424 Cu 0.34365 0.34265 0.68006
 Cu425 Cu 0.31933 0.34370 0.65663
 Cu426 Cu 0.34395 0.31868 0.65620
 N427 N 0.35743 0.32863 0.67973
 N428 N 0.35752 0.31929 0.67034
 C429 C 0.36804 0.31090 0.67242
 C430 C 0.37480 0.31526 0.68369
 C431 C 0.36788 0.32649 0.68811
 H432 H 0.37056 0.30227 0.66625
 H433 H 0.37030 0.33259 0.69678
 N434 N 0.32937 0.31980 0.64278
 N435 N 0.32002 0.32935 0.64293
 C436 C 0.31150 0.32736 0.63259
 C437 C 0.31573 0.31608 0.62569
 C438 C 0.32704 0.31149 0.63233
 H439 H 0.30285 0.33360 0.63024
 H440 H 0.33306 0.30275 0.62974
 H441 H 0.32878 0.32819 0.66688
 H442 H 0.33973 0.33913 0.65619
 N443 N 0.31989 0.85747 0.17039
 N444 N 0.32953 0.85743 0.17947
 C445 C 0.32752 0.86780 0.18800
 C446 C 0.31606 0.87461 0.18398
 C447 C 0.31144 0.86787 0.17281
 H448 H 0.33385 0.87023 0.19649
 H449 H 0.30260 0.87032 0.16692
 Cu450 Cu 0.34369 0.84377 0.17933
 Cu451 Cu 0.31899 0.84403 0.15617
 Cu452 Cu 0.34371 0.81918 0.15599
 N453 N 0.35726 0.82952 0.17929
 N454 N 0.35722 0.81994 0.17015
 C455 C 0.36759 0.81143 0.17247
 C456 C 0.37439 0.81596 0.18364
 C457 C 0.36765 0.82742 0.18776
 H458 H 0.36999 0.80261 0.16650
 H459 H 0.37014 0.83370 0.19628
 N460 N 0.32918 0.82011 0.14252
 N461 N 0.31976 0.82958 0.14260
 C462 C 0.31130 0.82749 0.13223
 C463 C 0.31564 0.81622 0.12538
 C464 C 0.32696 0.81175 0.13208
 H465 H 0.30261 0.83367 0.12982
 H466 H 0.33307 0.80305 0.12953
 H467 H 0.32872 0.82887 0.16677
 H468 H 0.33941 0.83960 0.15560
 N469 N 0.81970 0.35706 0.17002
 N470 N 0.82901 0.35684 0.17944
 C471 C 0.82691 0.36728 0.18787
 C472 C 0.81574 0.37431 0.18345
 C473 C 0.81138 0.36762 0.17214
 H474 H 0.83298 0.36959 0.19658
 H475 H 0.80277 0.37022 0.16597
 Cu476 Cu 0.84288 0.34290 0.17980
 Cu477 Cu 0.81903 0.34358 0.15580
 Cu478 Cu 0.84396 0.31892 0.15593
 N479 N 0.85694 0.32914 0.17961
 N480 N 0.85731 0.31980 0.17023
 C481 C 0.86792 0.31157 0.17246
 C482 C 0.87447 0.31603 0.18381
 C483 C 0.86731 0.32717 0.18813
 H484 H 0.87065 0.30296 0.16633
 H485 H 0.86951 0.33330 0.19684
 N486 N 0.82957 0.31971 0.14231
 N487 N 0.82006 0.32909 0.14226
 C488 C 0.81171 0.32685 0.13183
 C489 C 0.81624 0.31557 0.12508
 C490 C 0.82752 0.31126 0.13191
 H491 H 0.80298 0.33292 0.12931
 H492 H 0.83373 0.30260 0.12948
 H493 H 0.82847 0.32824 0.16631
 H494 H 0.83950 0.33934 0.15585
 N495 N 0.82002 0.85709 0.67031
 N496 N 0.82942 0.85678 0.67962
 C497 C 0.82744 0.86713 0.68818
 C498 C 0.81623 0.87421 0.68395
 C499 C 0.81173 0.86765 0.67262
 H500 H 0.83361 0.86935 0.69685
 H501 H 0.80306 0.87031 0.66657
 Cu502 Cu 0.84325 0.84280 0.67970
 Cu503 Cu 0.81917 0.84373 0.65599
 Cu504 Cu 0.84396 0.81891 0.65575
 N505 N 0.85722 0.82897 0.67936
 N506 N 0.85744 0.81963 0.66996
 C507 C 0.86800 0.81132 0.67210
 C508 C 0.87467 0.81572 0.68341
 C509 C 0.86764 0.82691 0.68780
 H510 H 0.87061 0.80269 0.66595
 H511 H 0.86994 0.83301 0.69650
 N512 N 0.82945 0.81988 0.64225
 N513 N 0.82001 0.82934 0.64234
 C514 C 0.81157 0.82725 0.63195
 C515 C 0.81595 0.81600 0.62509
 C516 C 0.82725 0.81153 0.63180
 H517 H 0.80287 0.83341 0.62955
 H518 H 0.83337 0.80283 0.62926
 H519 H 0.82862 0.82827 0.66632
 H520 H 0.83960 0.83934 0.65578
 N521 N 0.68020 0.64326 0.67025
 N522 N 0.67080 0.64345 0.67958
 C523 C 0.67287 0.63306 0.68807
 C524 C 0.68412 0.62609 0.68377
 C525 C 0.68856 0.63275 0.67247
 H526 H 0.66673 0.63074 0.69674
 H527 H 0.69723 0.63017 0.66637
 Cu528 Cu 0.65692 0.65736 0.67979
 Cu529 Cu 0.68093 0.65671 0.65599
 Cu530 Cu 0.65603 0.68143 0.65604
 N531 N 0.64292 0.67116 0.67966
 N532 N 0.64263 0.68057 0.67034
 C533 C 0.63206 0.68885 0.67262
 C534 C 0.62547 0.68434 0.68394
 C535 C 0.63254 0.67313 0.68819
 H536 H 0.62939 0.69751 0.66655
 H537 H 0.63029 0.66696 0.69686
 N538 N 0.67047 0.68057 0.64243
 N539 N 0.67995 0.67116 0.64242
 C540 C 0.68832 0.67332 0.63198
 C541 C 0.68385 0.68458 0.62518
 C542 C 0.67256 0.68897 0.63199
 H543 H 0.69704 0.66721 0.62949
 H544 H 0.66639 0.69763 0.62951
 H545 H 0.67144 0.67205 0.66645
 H546 H 0.66049 0.66101 0.65587
 N547 N 0.68046 0.14285 0.17002
 N548 N 0.67104 0.14298 0.17934
 C549 C 0.67312 0.13256 0.18779
 C550 C 0.68439 0.12562 0.18349
 C551 C 0.68884 0.13235 0.17222
 H552 H 0.66697 0.13019 0.19644
 H553 H 0.69752 0.12980 0.16613
 Cu554 Cu 0.65703 0.15677 0.17949
 Cu555 Cu 0.68119 0.15637 0.15582
 Cu556 Cu 0.65623 0.18105 0.15597
 N557 N 0.64309 0.17064 0.17950
 N558 N 0.64281 0.18010 0.17023
 C559 C 0.63225 0.18838 0.17254
 C560 C 0.62564 0.18381 0.18382
 C561 C 0.63270 0.17259 0.18803
 H562 H 0.62959 0.19707 0.16651
 H563 H 0.63044 0.16638 0.19667
 N564 N 0.67069 0.18031 0.14238
 N565 N 0.68020 0.17091 0.14232
 C566 C 0.68857 0.17317 0.13189
 C567 C 0.68408 0.18447 0.12517
 C568 C 0.67277 0.18878 0.13200
 H569 H 0.69729 0.16710 0.12936
 H570 H 0.66657 0.19744 0.12957
 H571 H 0.67162 0.17160 0.16639
 H572 H 0.66075 0.16066 0.15563
 N573 N 0.17994 0.64260 0.17020
 N574 N 0.17026 0.64267 0.17925
 C575 C 0.17219 0.63228 0.18779
 C576 C 0.18365 0.62544 0.18381
 C577 C 0.18835 0.63218 0.17266
 H578 H 0.16582 0.62988 0.19627
 H579 H 0.19723 0.62971 0.16682
 Cu580 Cu 0.15616 0.65640 0.17907
 Cu581 Cu 0.18100 0.65606 0.15600
 Cu582 Cu 0.15635 0.68097 0.15572
 N583 N 0.14263 0.67069 0.17898
 N584 N 0.14275 0.68025 0.16981
 C585 C 0.13242 0.68882 0.17207
 C586 C 0.12554 0.68436 0.18323
 C587 C 0.13220 0.67288 0.18741
 H588 H 0.13011 0.69765 0.16609
 H589 H 0.12965 0.66664 0.19595
 N590 N 0.17096 0.68001 0.14231
 N591 N 0.18036 0.67052 0.14244
 C592 C 0.18891 0.67262 0.13211
 C593 C 0.18462 0.68391 0.12525
 C594 C 0.17327 0.68839 0.13189
 H595 H 0.19760 0.66644 0.12974
 H596 H 0.16719 0.69710 0.12932
 H597 H 0.17127 0.67122 0.16655
 H598 H 0.16060 0.66051 0.15535
 N599 N 0.18022 0.14222 0.67076
 N600 N 0.17079 0.14254 0.68007
 C601 C 0.17273 0.13213 0.68859
 C602 C 0.18392 0.12503 0.68432
 C603 C 0.18846 0.13163 0.67303
 H604 H 0.16654 0.12990 0.69725
 H605 H 0.19713 0.12896 0.66696
 Cu606 Cu 0.15702 0.15659 0.68017
 Cu607 Cu 0.18115 0.15560 0.65645
 Cu608 Cu 0.15642 0.18045 0.65617
 N609 N 0.14308 0.17048 0.67980
 N610 N 0.14291 0.17977 0.67036
 C611 C 0.13237 0.18813 0.67245
 C612 C 0.12565 0.18381 0.68377
 C613 C 0.13263 0.17262 0.68822
 H614 H 0.12981 0.19674 0.66625
 H615 H 0.13029 0.16656 0.69695
 N616 N 0.17096 0.17945 0.64268
 N617 N 0.18040 0.17000 0.64281
 C618 C 0.18890 0.17209 0.63244
 C619 C 0.18456 0.18334 0.62556
 C620 C 0.17321 0.18780 0.63223
 H621 H 0.19761 0.16593 0.63008
 H622 H 0.16711 0.19650 0.62967
 H623 H 0.17171 0.17106 0.66678
 H624 H 0.16074 0.16000 0.65625
 N625 N 0.31973 0.64323 0.32957
 N626 N 0.32907 0.64345 0.32018
 C627 C 0.32704 0.63300 0.31175
 C628 C 0.31586 0.62598 0.31615
 C629 C 0.31143 0.63266 0.32744
 H630 H 0.33316 0.63068 0.30306
 H631 H 0.30282 0.63006 0.33360
 Cu632 Cu 0.34290 0.65740 0.31987
 Cu633 Cu 0.31897 0.65667 0.34381
 Cu634 Cu 0.34378 0.68142 0.34371
 N635 N 0.35690 0.67119 0.32007
 N636 N 0.35718 0.68057 0.32942
 C637 C 0.36776 0.68882 0.32721
 C638 C 0.37439 0.68432 0.31590
 C639 C 0.36732 0.67316 0.31159
 H640 H 0.37041 0.69745 0.33332
 H641 H 0.36959 0.66699 0.30292
 N642 N 0.32936 0.68056 0.35732
 N643 N 0.31991 0.67113 0.35735
 C644 C 0.31156 0.67327 0.36782
 C645 C 0.31601 0.68453 0.37460
 C646 C 0.32726 0.68895 0.36777
 H647 H 0.30288 0.66713 0.37033
 H648 H 0.33341 0.69763 0.37023
 H649 H 0.32838 0.67203 0.33331
 H650 H 0.33942 0.66098 0.34381
 N651 N 0.32007 0.14293 0.82968
 N652 N 0.32935 0.14318 0.82023
 C653 C 0.32728 0.13274 0.81179
 C654 C 0.31615 0.12569 0.81624
 C655 C 0.31178 0.13235 0.82758
 H656 H 0.33335 0.13045 0.80306
 H657 H 0.30321 0.12972 0.83378
 Cu658 Cu 0.34317 0.15715 0.81983
 Cu659 Cu 0.31934 0.15640 0.84390
 Cu660 Cu 0.34416 0.18111 0.84373
 N661 N 0.35720 0.17090 0.82005
 N662 N 0.35754 0.18024 0.82944
 C663 C 0.36814 0.18847 0.82722
 C664 C 0.37472 0.18401 0.81587
 C665 C 0.36759 0.17288 0.81153
 H666 H 0.37084 0.19707 0.83335
 H667 H 0.36981 0.16676 0.80282
 N668 N 0.32976 0.18031 0.85735
 N669 N 0.32029 0.17089 0.85742
 C670 C 0.31192 0.17312 0.86786
 C671 C 0.31638 0.18443 0.87458
 C672 C 0.32766 0.18877 0.86774
 H673 H 0.30322 0.16703 0.87039
 H674 H 0.33381 0.19746 0.87015
 H675 H 0.32870 0.17174 0.83336
 H676 H 0.33978 0.16066 0.84379
 N677 N 0.82041 0.64309 0.82963
 N678 N 0.83003 0.64316 0.82051
 C679 C 0.82800 0.63282 0.81195
 C680 C 0.81657 0.62601 0.81598
 C681 C 0.81196 0.63272 0.82719
 H682 H 0.83432 0.63043 0.80341
 H683 H 0.80312 0.63026 0.83309
 Cu684 Cu 0.84420 0.65676 0.82063
 Cu685 Cu 0.81953 0.65651 0.84388
 Cu686 Cu 0.84422 0.68134 0.84395
 N687 N 0.85777 0.67096 0.82065
 N688 N 0.85772 0.68055 0.82978
 C689 C 0.86808 0.68905 0.82746
 C690 C 0.87491 0.68450 0.81630
 C691 C 0.86818 0.67304 0.81218
 H692 H 0.87045 0.69788 0.83340
 H693 H 0.87068 0.66676 0.80366
 N694 N 0.82973 0.68043 0.85746
 N695 N 0.82033 0.67095 0.85746
 C696 C 0.81191 0.67308 0.86788
 C697 C 0.81628 0.68439 0.87465
 C698 C 0.82754 0.68883 0.86787
 H699 H 0.80324 0.66692 0.87036
 H700 H 0.83364 0.69755 0.87034
 H701 H 0.82919 0.67162 0.83324
 H702 H 0.83993 0.66090 0.84437
 N703 N 0.82012 0.14282 0.32961
 N704 N 0.82970 0.14279 0.32045
 C705 C 0.82765 0.13234 0.31201
 C706 C 0.81623 0.12557 0.31617
 C707 C 0.81167 0.13241 0.32733
 H708 H 0.83392 0.12988 0.30346
 H709 H 0.80285 0.13003 0.33330
 Cu710 Cu 0.84379 0.15648 0.32037
 Cu711 Cu 0.81927 0.15640 0.34373
 Cu712 Cu 0.84411 0.18114 0.34356
 N713 N 0.85753 0.17052 0.32025
 N714 N 0.85760 0.18015 0.32935
 C715 C 0.86802 0.18855 0.32696
 C716 C 0.87477 0.18390 0.31578
 C717 C 0.86793 0.17248 0.31173
 H718 H 0.87047 0.19739 0.33286
 H719 H 0.87031 0.16615 0.30321
 N720 N 0.82961 0.18041 0.35710
 N721 N 0.82014 0.17100 0.35717
 C722 C 0.81175 0.17324 0.36759
 C723 C 0.81620 0.18455 0.37430
 C724 C 0.82749 0.18889 0.36747
 H725 H 0.80306 0.16712 0.37013
 H726 H 0.83366 0.19756 0.36990
 H727 H 0.82896 0.17145 0.33307
 H728 H 0.83971 0.16071 0.34415
 N729 N 0.68004 0.35659 0.32956
 N730 N 0.67047 0.35664 0.32041
 C731 C 0.67255 0.36705 0.31195
 C732 C 0.68399 0.37379 0.31608
 C733 C 0.68853 0.36696 0.32725
 H734 H 0.66628 0.36954 0.30343
 H735 H 0.69733 0.36935 0.33321
 Cu736 Cu 0.65629 0.34304 0.32037
 Cu737 Cu 0.68081 0.34306 0.34372
 Cu738 Cu 0.65597 0.31836 0.34357
 N739 N 0.64261 0.32894 0.32026
 N740 N 0.64255 0.31930 0.32935
 C741 C 0.63215 0.31088 0.32694
 C742 C 0.62542 0.31553 0.31576
 C743 C 0.63225 0.32696 0.31173
 H744 H 0.62968 0.30204 0.33284
 H745 H 0.62985 0.33331 0.30322
 N746 N 0.67040 0.31912 0.35714
 N747 N 0.67987 0.32853 0.35720
 C748 C 0.68821 0.32633 0.36765
 C749 C 0.68373 0.31504 0.37439
 C750 C 0.67247 0.31068 0.36755
 H751 H 0.69689 0.33244 0.37019
 H752 H 0.66629 0.30202 0.37000
 H753 H 0.67112 0.32805 0.33300
 H754 H 0.66037 0.33879 0.34413
 N755 N 0.67977 0.85679 0.82989
 N756 N 0.67020 0.85683 0.82074
 C757 C 0.67233 0.86719 0.81223
 C758 C 0.68378 0.87391 0.81632
 C759 C 0.68830 0.86713 0.82752
 H760 H 0.66607 0.86967 0.80369
 H761 H 0.69711 0.86953 0.83347
 Cu762 Cu 0.65596 0.84331 0.82072
 Cu763 Cu 0.68049 0.84330 0.84408
 Cu764 Cu 0.65565 0.81862 0.84394
 N765 N 0.64234 0.82916 0.82060
 N766 N 0.64225 0.81953 0.82969
 C767 C 0.63187 0.81109 0.82724
 C768 C 0.62519 0.81573 0.81603
 C769 C 0.63201 0.82717 0.81203
 H770 H 0.62939 0.80225 0.83312
 H771 H 0.62963 0.83350 0.80351
 N772 N 0.67005 0.81940 0.85753
 N773 N 0.67952 0.82881 0.85759
 C774 C 0.68788 0.82659 0.86802
 C775 C 0.68342 0.81529 0.87475
 C776 C 0.67214 0.81095 0.86793
 H777 H 0.69659 0.83268 0.87053
 H778 H 0.66598 0.80226 0.87036
 H779 H 0.67079 0.82829 0.83333
 H780 H 0.66006 0.83903 0.84446
 N781 N 0.17956 0.35690 0.82952
 N782 N 0.17017 0.35658 0.82019
 C783 C 0.17216 0.36693 0.81163
 C784 C 0.18334 0.37402 0.81588
 C785 C 0.18783 0.36746 0.82722
 H786 H 0.16600 0.36915 0.80295
 H787 H 0.19647 0.37013 0.83330
 Cu788 Cu 0.15640 0.34257 0.82007
 Cu789 Cu 0.18044 0.34355 0.84386
 Cu790 Cu 0.15573 0.31871 0.84404
 N791 N 0.14246 0.32871 0.82041
 N792 N 0.14228 0.31940 0.82983
 C793 C 0.13178 0.31103 0.82772
 C794 C 0.12509 0.31537 0.81641
 C795 C 0.13205 0.32657 0.81197
 H796 H 0.12922 0.30241 0.83390
 H797 H 0.12971 0.33264 0.80325
 N798 N 0.17019 0.31969 0.85756
 N799 N 0.17961 0.32915 0.85751
 C800 C 0.18804 0.32703 0.86791
 C801 C 0.18365 0.31575 0.87474
 C802 C 0.17237 0.31132 0.86799
 H803 H 0.19673 0.33317 0.87034
 H804 H 0.16627 0.30261 0.87050
 H805 H 0.17108 0.32811 0.83350
 H806 H 0.16004 0.33917 0.84400
 N807 N 0.17985 0.85704 0.32964
 N808 N 0.17025 0.85703 0.32051
 C809 C 0.17231 0.86742 0.31201
 C810 C 0.18375 0.87419 0.31609
 C811 C 0.18832 0.86741 0.32726
 H812 H 0.16602 0.86989 0.30350
 H813 H 0.19714 0.86984 0.33319
 Cu814 Cu 0.15607 0.84343 0.32058
 Cu815 Cu 0.18067 0.84360 0.34386
 Cu816 Cu 0.15595 0.81884 0.34392
 N817 N 0.14251 0.82920 0.32054
 N818 N 0.14252 0.81962 0.32970
 C819 C 0.13218 0.81111 0.32735
 C820 C 0.12541 0.81563 0.31615
 C821 C 0.13215 0.82709 0.31203
 H822 H 0.12976 0.80230 0.33330
 H823 H 0.12969 0.83336 0.30350
 N824 N 0.17038 0.81974 0.35746
 N825 N 0.17982 0.82917 0.35743
 C826 C 0.18823 0.82704 0.36783
 C827 C 0.18383 0.81577 0.37465
 C828 C 0.17254 0.81135 0.36790
 H829 H 0.19693 0.83317 0.37028
 H830 H 0.16642 0.80266 0.37040
 H831 H 0.17099 0.82851 0.33319
 H832 H 0.16025 0.83926 0.34433
 C833 C 0.24429 1.00008 0.25466
 C834 C 0.25479 1.00005 0.24595
 C835 C 0.26035 1.01280 0.24055
 C836 C 0.26040 0.98729 0.24057
 C837 C 0.23877 0.98733 0.26010
 C838 C 0.23876 1.01283 0.26013
 C839 C 0.25353 1.01964 0.23025
 C840 C 0.25892 1.03153 0.22487
 C841 C 0.27114 1.03666 0.22976
 C842 C 0.27788 1.02995 0.24016
 C843 C 0.27250 1.01806 0.24554
 C844 C 0.25283 0.97947 0.23156
 C845 C 0.25826 0.96759 0.22618
 C846 C 0.27131 0.96347 0.22975
 C847 C 0.27886 0.97120 0.23881
 C848 C 0.27343 0.98306 0.24419
 C849 C 0.24569 0.98048 0.27032
 C850 C 0.24040 0.96856 0.27571
 C851 C 0.22816 0.96340 0.27089
 C852 C 0.22130 0.97013 0.26058
 C853 C 0.22659 0.98206 0.25520
 C854 C 0.24646 1.02060 0.26909
 C855 C 0.24115 1.03250 0.27452
 C856 C 0.22809 1.03670 0.27108
 C857 C 0.22039 1.02900 0.26213
 C858 C 0.22569 1.01710 0.25668
 H859 H 0.24412 1.01570 0.22634
 H860 H 0.25362 1.03664 0.21683
 H861 H 0.28732 1.03386 0.24405
 H862 H 0.27779 1.01300 0.25361
 H863 H 0.24278 0.98264 0.22861
 H864 H 0.25234 0.96170 0.21917
 H865 H 0.27938 0.98890 0.25121
 H866 H 0.25513 0.98444 0.27417
 H867 H 0.24579 0.96343 0.28368
 H868 H 0.21184 0.96620 0.25676
 H869 H 0.22122 0.98713 0.24720
 H870 H 0.25651 1.01737 0.27193
 H871 H 0.24718 1.03836 0.28147
 H872 H 0.21027 1.03215 0.25942
 H873 H 0.21964 1.01129 0.24974
 H874 H 0.28896 0.96809 0.24164
 C875 C 0.24495 0.49983 0.75508
 C876 C 0.25474 0.49981 0.74547
 C877 C 0.26003 0.51255 0.73957
 C878 C 0.26072 0.48705 0.74031
 C879 C 0.23896 0.48710 0.76029
 C880 C 0.23968 0.51259 0.76096
 C881 C 0.25134 0.52200 0.73354
 C882 C 0.25654 0.53387 0.72792
 C883 C 0.27048 0.53631 0.72815
 C884 C 0.27919 0.52686 0.73401
 C885 C 0.27400 0.51502 0.73965
 C886 C 0.26079 0.48453 0.72646
 C887 C 0.26653 0.47269 0.72140
 C888 C 0.27235 0.46326 0.73012
 C889 C 0.27243 0.46573 0.74395
 C890 C 0.26670 0.47761 0.74903
 C891 C 0.23891 0.48464 0.77416
 C892 C 0.23319 0.47282 0.77927
 C893 C 0.22739 0.46335 0.77059
 C894 C 0.22727 0.46578 0.75676
 C895 C 0.23298 0.47764 0.75162
 C896 C 0.24839 0.52200 0.76700
 C897 C 0.24320 0.53388 0.77263
 C898 C 0.22927 0.53637 0.77238
 C899 C 0.22055 0.52695 0.76652
 C900 C 0.22571 0.51511 0.76087
 H901 H 0.24056 0.52016 0.73313
 H902 H 0.24972 0.54109 0.72333
 H903 H 0.28999 0.52862 0.73420
 H904 H 0.28087 0.50781 0.74417
 H905 H 0.25631 0.49173 0.71958
 H906 H 0.26646 0.47090 0.71068
 H907 H 0.26699 0.47948 0.75972
 H908 H 0.24338 0.49186 0.78100
 H909 H 0.23328 0.47106 0.78999
 H910 H 0.22273 0.45855 0.74997
 H911 H 0.23267 0.47947 0.74093
 H912 H 0.25916 0.52011 0.76741
 H913 H 0.25003 0.54106 0.77722
 H914 H 0.20975 0.52875 0.76633
 H915 H 0.21883 0.50793 0.75635
 H916 H 0.27698 0.45853 0.75078
 C917 C 0.74515 0.00006 0.24570
 C918 C 0.75558 -0.00004 0.25448
 C919 C 0.76105 -0.01283 0.25994
 C920 C 0.76111 0.01267 0.25997
 C921 C 0.73962 0.01286 0.24033
 C922 C 0.73955 -0.01265 0.24027
 C923 C 0.75334 -0.02054 0.26895
 C924 C 0.75861 -0.03244 0.27442
 C925 C 0.77165 -0.03671 0.27095
 C926 C 0.77935 -0.02909 0.26191
 C927 C 0.77407 -0.01719 0.25643
 C928 C 0.75415 0.01951 0.27019
 C929 C 0.75942 0.03144 0.27556
 C930 C 0.77166 0.03663 0.27074
 C931 C 0.77857 0.02988 0.26046
 C932 C 0.77331 0.01794 0.25509
 C933 C 0.74730 0.02072 0.23143
 C934 C 0.74193 0.03262 0.22603
 C935 C 0.72883 0.03672 0.22946
 C936 C 0.72118 0.02896 0.23842
 C937 C 0.72655 0.01708 0.24383
 C938 C 0.74636 -0.01949 0.22996
 C939 C 0.74094 -0.03135 0.22456
 C940 C 0.72869 -0.03644 0.22944
 C941 C 0.72194 -0.02971 0.23983
 C942 C 0.72735 -0.01786 0.24523
 H943 H 0.74330 -0.01725 0.27183
 H944 H 0.75258 -0.03823 0.28143
 H945 H 0.78945 -0.03230 0.25916
 H946 H 0.78014 -0.01142 0.24944
 H947 H 0.74470 0.01555 0.27402
 H948 H 0.75400 0.03657 0.28352
 H949 H 0.77872 0.01287 0.24710
 H950 H 0.75738 0.01756 0.22857
 H951 H 0.74794 0.03853 0.21909
 H952 H 0.71103 0.03204 0.24115
 H953 H 0.72052 0.01121 0.25076
 H954 H 0.75580 -0.01558 0.22606
 H955 H 0.74625 -0.03648 0.21653
 H956 H 0.71247 -0.03358 0.24370
 H957 H 0.72207 -0.01279 0.25330
 H958 H 0.78803 0.03383 0.25665
 C959 C 0.74538 0.50035 0.74520
 C960 C 0.75514 0.50037 0.75483
 C961 C 0.76043 0.48762 0.76072
 C962 C 0.76107 0.51312 0.76004
 C963 C 0.73943 0.51309 0.73993
 C964 C 0.74009 0.48760 0.73936
 C965 C 0.75174 0.47819 0.76678
 C966 C 0.75695 0.46632 0.77240
 C967 C 0.77089 0.46384 0.77212
 C968 C 0.77959 0.47328 0.76623
 C969 C 0.77440 0.48512 0.76060
 C970 C 0.76106 0.51557 0.77391
 C971 C 0.76675 0.52740 0.77904
 C972 C 0.77259 0.53687 0.77038
 C973 C 0.77275 0.53446 0.75654
 C974 C 0.76707 0.52260 0.75139
 C975 C 0.73948 0.51552 0.72606
 C976 C 0.73379 0.52733 0.72089
 C977 C 0.72791 0.53682 0.72951
 C978 C 0.72769 0.53442 0.74335
 C979 C 0.73337 0.52257 0.74855
 C980 C 0.74878 0.47812 0.73334
 C981 C 0.74356 0.46624 0.72777
 C982 C 0.72962 0.46379 0.72807
 C983 C 0.72093 0.47327 0.73392
 C984 C 0.72612 0.48512 0.73950
 H985 H 0.74097 0.48006 0.76722
 H986 H 0.75014 0.45912 0.77701
 H987 H 0.79039 0.47150 0.76602
 H988 H 0.78127 0.49232 0.75606
 H989 H 0.75657 0.50835 0.78074
 H990 H 0.76662 0.52914 0.78976
 H991 H 0.76742 0.52077 0.74069
 H992 H 0.74402 0.50828 0.71926
 H993 H 0.73396 0.52907 0.71017
 H994 H 0.72309 0.54167 0.75011
 H995 H 0.73299 0.52076 0.75925
 H996 H 0.75955 0.47997 0.73289
 H997 H 0.75037 0.45901 0.72320
 H998 H 0.71013 0.47151 0.73415
 H999 H 0.71925 0.49235 0.74400
 H1000 H 0.77731 0.54169 0.74976
 C1001 C 0.24498 0.50016 0.24595
 C1002 C 0.25547 0.50013 0.25465
 C1003 C 0.26103 0.48737 0.26007
 C1004 C 0.26098 0.51287 0.26010
 C1005 C 0.23937 0.51292 0.24058
 C1006 C 0.23945 0.48741 0.24052
 C1007 C 0.25335 0.47956 0.26903
 C1008 C 0.25868 0.46766 0.27442
 C1009 C 0.27174 0.46348 0.27093
 C1010 C 0.27942 0.47121 0.26196
 C1011 C 0.27409 0.48312 0.25656
 C1012 C 0.25407 0.51967 0.27037
 C1013 C 0.25937 0.53157 0.27577
 C1014 C 0.27160 0.53676 0.27093
 C1015 C 0.27845 0.53006 0.26058
 C1016 C 0.27316 0.51816 0.25518
 C1017 C 0.24699 0.52080 0.23163
 C1018 C 0.24156 0.53268 0.22627
 C1019 C 0.22848 0.53675 0.22978
 C1020 C 0.22088 0.52897 0.23877
 C1021 C 0.22630 0.51710 0.24414
 C1022 C 0.24630 0.48061 0.23021
 C1023 C 0.24095 0.46873 0.22481
 C1024 C 0.22873 0.46355 0.22969
 C1025 C 0.22196 0.47022 0.24010
 C1026 C 0.22730 0.48211 0.24551
 H1027 H 0.24330 0.48278 0.27192
 H1028 H 0.25267 0.46177 0.28138
 H1029 H 0.28954 0.46808 0.25920
 H1030 H 0.28012 0.48896 0.24961
 H1031 H 0.24464 0.51569 0.27423
 H1032 H 0.25400 0.53667 0.28377
 H1033 H 0.27852 0.51312 0.24714
 H1034 H 0.25706 0.51766 0.22873
 H1035 H 0.24752 0.53861 0.21931
 H1036 H 0.21075 0.53203 0.24155
 H1037 H 0.22032 0.51122 0.25110
 H1038 H 0.25571 0.48459 0.22630
 H1039 H 0.24627 0.46364 0.21676
 H1040 H 0.21253 0.46628 0.24398
 H1041 H 0.22199 0.48713 0.25359
 H1042 H 0.28790 0.53401 0.25674
 C1043 C 0.74478 0.99976 0.75506
 C1044 C 0.75455 0.99975 0.74543
 C1045 C 0.75983 1.01249 0.73954
 C1046 C 0.76050 0.98700 0.74020
 C1047 C 0.73884 0.98702 0.76031
 C1048 C 0.73947 1.01250 0.76091
 C1049 C 0.75114 1.02192 0.73345
 C1050 C 0.75634 1.03377 0.72781
 C1051 C 0.77027 1.03624 0.72809
 C1052 C 0.77897 1.02682 0.73402
 C1053 C 0.77379 1.01500 0.73968
 C1054 C 0.76052 0.98456 0.72633
 C1055 C 0.76623 0.97274 0.72119
 C1056 C 0.77207 0.96325 0.72983
 C1057 C 0.77219 0.96565 0.74367
 C1058 C 0.76649 0.97750 0.74884
 C1059 C 0.73888 0.98457 0.77417
 C1060 C 0.73321 0.97274 0.77933
 C1061 C 0.72736 0.96327 0.77070
 C1062 C 0.72713 0.96570 0.75686
 C1063 C 0.73280 0.97756 0.75168
 C1064 C 0.74815 1.02195 0.76695
 C1065 C 0.74292 1.03383 0.77255
 C1066 C 0.72899 1.03629 0.77227
 C1067 C 0.72030 1.02682 0.76643
 C1068 C 0.72550 1.01498 0.76082
 H1069 H 0.74037 1.02004 0.73301
 H1070 H 0.74953 1.04095 0.72316
 H1071 H 0.78977 1.02861 0.73425
 H1072 H 0.78066 1.00782 0.74424
 H1073 H 0.75603 0.99180 0.71950
 H1074 H 0.76613 0.97101 0.71046
 H1075 H 0.76682 0.97932 0.75954
 H1076 H 0.74340 0.99179 0.78099
 H1077 H 0.73338 0.97099 0.79005
 H1078 H 0.72255 0.95847 0.75010
 H1079 H 0.73241 0.97940 0.74099
 H1080 H 0.75893 1.02010 0.76739
 H1081 H 0.74973 1.04105 0.77713
 H1082 H 0.70950 1.02860 0.76621
 H1083 H 0.71864 1.00777 0.75631
 H1084 H 0.77675 0.95840 0.75045
 C1085 C 0.74433 0.49973 0.25461
 C1086 C 0.75479 0.49971 0.24585
 C1087 C 0.76030 0.51245 0.24039
 C1088 C 0.76037 0.48694 0.24044
 C1089 C 0.73883 0.48698 0.26006
 C1090 C 0.73877 0.51249 0.26004
 C1091 C 0.75347 0.51917 0.23003
 C1092 C 0.75882 0.53103 0.22455
 C1093 C 0.77102 0.53625 0.22941
 C1094 C 0.77777 0.52965 0.23988
 C1095 C 0.77243 0.51779 0.24535
 C1096 C 0.75268 0.47904 0.23161
 C1097 C 0.75806 0.46716 0.22620
 C1098 C 0.77120 0.46311 0.22955
 C1099 C 0.77887 0.47092 0.23843
 C1100 C 0.77349 0.48279 0.24385
 C1101 C 0.74580 0.48010 0.27023
 C1102 C 0.74053 0.46816 0.27559
 C1103 C 0.72826 0.46301 0.27081
 C1104 C 0.72135 0.46979 0.26057
 C1105 C 0.72661 0.48174 0.25521
 C1106 C 0.74639 0.52024 0.26909
 C1107 C 0.74104 0.53213 0.27450
 C1108 C 0.72802 0.53636 0.27093
 C1109 C 0.72041 0.52869 0.26188
 C1110 C 0.72576 0.51680 0.25646
 H1111 H 0.74407 0.51516 0.22614
 H1112 H 0.75350 0.53606 0.21648
 H1113 H 0.78719 0.53363 0.24374
 H1114 H 0.77772 0.51281 0.25346
 H1115 H 0.74257 0.48215 0.22881
 H1116 H 0.75204 0.46121 0.21931
 H1117 H 0.77953 0.48870 0.25072
 H1118 H 0.75525 0.48404 0.27405
 H1119 H 0.74596 0.46299 0.28351
 H1120 H 0.71188 0.46587 0.25677
 H1121 H 0.72120 0.48684 0.24726
 H1122 H 0.75641 0.51699 0.27203
 H1123 H 0.74700 0.53797 0.28152
 H1124 H 0.71032 0.53187 0.25906
 H1125 H 0.71977 0.51101 0.24944
 H1126 H 0.78904 0.46789 0.24109
 C1127 C 0.24531 -0.00035 0.74611
 C1128 C 0.25582 -0.00028 0.75479
 C1129 C 0.26135 -0.01301 0.76026
 C1130 C 0.26135 0.01249 0.76018
 C1131 C 0.23971 0.01238 0.74071
 C1132 C 0.23977 -0.01312 0.74071
 C1133 C 0.25438 -0.01988 0.77043
 C1134 C 0.25968 -0.03180 0.77583
 C1135 C 0.27198 -0.03692 0.77107
 C1136 C 0.27890 -0.03015 0.76083
 C1137 C 0.27361 -0.01823 0.75543
 C1138 C 0.25374 0.02024 0.76924
 C1139 C 0.25908 0.03214 0.77462
 C1140 C 0.27209 0.03636 0.77101
 C1141 C 0.27970 0.02868 0.76194
 C1142 C 0.27436 0.01679 0.75654
 C1143 C 0.24643 0.01914 0.73030
 C1144 C 0.24102 0.03102 0.72493
 C1145 C 0.22886 0.03623 0.72994
 C1146 C 0.22221 0.02959 0.74045
 C1147 C 0.22762 0.01771 0.74583
 C1148 C 0.24750 -0.02101 0.73185
 C1149 C 0.24214 -0.03288 0.72642
 C1150 C 0.22900 -0.03693 0.72977
 C1151 C 0.22130 -0.02914 0.73866
 C1152 C 0.22666 -0.01727 0.74410
 H1153 H 0.24490 -0.01596 0.77422
 H1154 H 0.25426 -0.03695 0.78376
 H1155 H 0.28840 -0.03405 0.75706
 H1156 H 0.27902 -0.01314 0.74747
 H1157 H 0.24373 0.01699 0.77222
 H1158 H 0.25312 0.03798 0.78166
 H1159 H 0.28034 0.01100 0.74951
 H1160 H 0.25580 0.01515 0.72630
 H1161 H 0.24625 0.03608 0.71681
 H1162 H 0.21282 0.03355 0.74443
 H1163 H 0.22241 0.01271 0.75398
 H1164 H 0.25760 -0.01789 0.72906
 H1165 H 0.24818 -0.03882 0.71953
 H1166 H 0.21114 -0.03219 0.74132
 H1167 H 0.22058 -0.01138 0.75098
 H1168 H 0.28977 0.03185 0.75909
 C1169 C 0.25475 0.24499 0.99983
 C1170 C 0.24505 0.25477 0.99983
 C1171 C 0.23984 0.26077 1.01248
 C1172 C 0.23912 0.26006 0.98719
 C1173 C 0.26071 0.23970 0.98720
 C1174 C 0.26001 0.23905 1.01249
 C1175 C 0.22588 0.26076 1.01502
 C1176 C 0.22078 0.26646 1.02679
 C1177 C 0.22956 0.27231 1.03612
 C1178 C 0.24348 0.27251 1.03359
 C1179 C 0.24860 0.26683 1.02179
 C1180 C 0.23306 0.25137 0.97780
 C1181 C 0.22743 0.25658 0.96602
 C1182 C 0.22769 0.27053 0.96358
 C1183 C 0.23356 0.27923 0.97297
 C1184 C 0.23920 0.27404 0.98472
 C1185 C 0.26677 0.24841 0.97781
 C1186 C 0.27247 0.24321 0.96605
 C1187 C 0.27228 0.22927 0.96364
 C1188 C 0.26641 0.22054 0.97302
 C1189 C 0.26069 0.22572 0.98475
 C1190 C 0.27398 0.23910 1.01496
 C1191 C 0.27914 0.23346 1.02673
 C1192 C 0.27041 0.22762 1.03613
 C1193 C 0.25647 0.22740 1.03368
 C1194 C 0.25129 0.23303 1.02189
 H1195 H 0.21895 0.25623 1.00792
 H1196 H 0.20999 0.26630 1.02862
 H1197 H 0.25035 0.27710 1.04071
 H1198 H 0.25937 0.26719 1.01989
 H1199 H 0.23265 0.24058 0.97964
 H1200 H 0.22284 0.24976 0.95885
 H1201 H 0.24374 0.28092 0.99187
 H1202 H 0.26714 0.25920 0.97964
 H1203 H 0.27706 0.25004 0.95889
 H1204 H 0.26626 0.20973 0.97127
 H1205 H 0.25616 0.21884 0.99190
 H1206 H 0.28087 0.24361 1.00780
 H1207 H 0.28994 0.23364 1.02849
 H1208 H 0.24963 0.22283 1.04086
 H1209 H 0.24052 0.23265 1.02005
 H1210 H 0.23377 0.29004 0.97121
 C1211 C 0.25436 0.74489 0.49973
 C1212 C 0.24551 0.75533 0.49972
 C1213 C 0.24004 0.76083 0.51238
 C1214 C 0.24001 0.76088 0.48708
 C1215 C 0.25989 0.73942 0.48708
 C1216 C 0.25982 0.73932 0.51237
 C1217 C 0.22967 0.75396 0.51911
 C1218 C 0.22429 0.75923 0.53097
 C1219 C 0.22926 0.77140 0.53618
 C1220 C 0.23972 0.77821 0.52955
 C1221 C 0.24510 0.77294 0.51769
 C1222 C 0.23109 0.75314 0.47928
 C1223 C 0.22566 0.75847 0.46748
 C1224 C 0.22907 0.77158 0.46339
 C1225 C 0.23800 0.77930 0.47112
 C1226 C 0.24344 0.77398 0.48292
 C1227 C 0.27007 0.74647 0.48024
 C1228 C 0.27553 0.74122 0.46841
 C1229 C 0.27083 0.72889 0.46333
 C1230 C 0.26055 0.72190 0.47006
 C1231 C 0.25510 0.72715 0.48189
 C1232 C 0.26896 0.74692 0.52005
 C1233 C 0.27435 0.74157 0.53186
 C1234 C 0.27069 0.72857 0.53607
 C1235 C 0.26154 0.72098 0.52847
 C1236 C 0.25613 0.72633 0.51666
 H1237 H 0.22571 0.74458 0.51513
 H1238 H 0.21621 0.75388 0.53603
 H1239 H 0.24366 0.78760 0.53351
 H1240 H 0.25323 0.77826 0.51270
 H1241 H 0.22827 0.74305 0.48242
 H1242 H 0.21873 0.75242 0.46159
 H1243 H 0.25036 0.78006 0.48875
 H1244 H 0.27383 0.75598 0.48413
 H1245 H 0.28347 0.74670 0.46328
 H1246 H 0.25682 0.71238 0.46619
 H1247 H 0.24711 0.72168 0.48695
 H1248 H 0.27196 0.75693 0.51682
 H1249 H 0.28144 0.74752 0.53766
 H1250 H 0.25864 0.71091 0.53163
 H1251 H 0.24902 0.72036 0.51093
 H1252 H 0.24070 0.78946 0.46805
 C1253 C 0.24543 0.74535 0.00006
 C1254 C 0.25517 0.75508 0.00002
 C1255 C 0.26111 0.76032 -0.01264
 C1256 C 0.26041 0.76107 0.01265
 C1257 C 0.24017 0.73942 0.01271
 C1258 C 0.23948 0.74008 -0.01257
 C1259 C 0.26721 0.75158 -0.02197
 C1260 C 0.27286 0.75673 -0.03377
 C1261 C 0.27257 0.77067 -0.03628
 C1262 C 0.26665 0.77942 -0.02694
 C1263 C 0.26099 0.77428 -0.01517
 C1264 C 0.27437 0.76103 0.01513
 C1265 C 0.27951 0.76670 0.02688
 C1266 C 0.27075 0.77256 0.03625
 C1267 C 0.25682 0.77279 0.03379
 C1268 C 0.25167 0.76713 0.02201
 C1269 C 0.22621 0.73949 0.01520
 C1270 C 0.22105 0.73383 0.02697
 C1271 C 0.22978 0.72795 0.03634
 C1272 C 0.24371 0.72772 0.03388
 C1273 C 0.24889 0.73336 0.02208
 C1274 C 0.23340 0.74881 -0.02192
 C1275 C 0.22774 0.74363 -0.03370
 C1276 C 0.22800 0.72969 -0.03616
 C1277 C 0.23389 0.72095 -0.02680
 C1278 C 0.23956 0.72611 -0.01505
 H1279 H 0.26763 0.74080 -0.02008
 H1280 H 0.27748 0.74988 -0.04090
 H1281 H 0.26642 0.79021 -0.02876
 H1282 H 0.25642 0.78119 -0.00806
 H1283 H 0.28128 0.75650 0.00799
 H1284 H 0.29030 0.76653 0.02866
 H1285 H 0.24089 0.76751 0.02016
 H1286 H 0.21931 0.74403 0.00807
 H1287 H 0.21025 0.73402 0.02875
 H1288 H 0.25055 0.72312 0.04103
 H1289 H 0.25967 0.73296 0.02023
 H1290 H 0.23299 0.75959 -0.02007
 H1291 H 0.22313 0.75047 -0.04084
 H1292 H 0.23409 0.71015 -0.02858
 H1293 H 0.24411 0.71921 -0.00793
 H1294 H 0.24997 0.77737 0.04095
 C1295 C 0.24530 0.24512 0.50046
 C1296 C 0.25503 0.25486 0.50046
 C1297 C 0.26097 0.26015 0.48781
 C1298 C 0.26027 0.26082 0.51310
 C1299 C 0.24003 0.23918 0.51311
 C1300 C 0.23934 0.23988 0.48782
 C1301 C 0.26702 0.25144 0.47841
 C1302 C 0.27266 0.25664 0.46663
 C1303 C 0.27242 0.27059 0.46420
 C1304 C 0.26656 0.27931 0.47360
 C1305 C 0.26090 0.27413 0.48536
 C1306 C 0.27424 0.26080 0.51557
 C1307 C 0.27938 0.26652 0.52730
 C1308 C 0.27063 0.27241 0.53666
 C1309 C 0.25670 0.27260 0.53421
 C1310 C 0.25154 0.26690 0.52245
 C1311 C 0.22606 0.23928 0.51561
 C1312 C 0.22090 0.23360 0.52736
 C1313 C 0.22962 0.22768 0.53671
 C1314 C 0.24355 0.22741 0.53424
 C1315 C 0.24874 0.23308 0.52246
 C1316 C 0.23327 0.24863 0.47847
 C1317 C 0.22759 0.24347 0.46670
 C1318 C 0.22780 0.22953 0.46424
 C1319 C 0.23368 0.22077 0.47358
 C1320 C 0.23938 0.22591 0.48533
 H1321 H 0.26741 0.24066 0.48024
 H1322 H 0.27725 0.24982 0.45945
 H1323 H 0.26637 0.29012 0.47185
 H1324 H 0.25637 0.28101 0.49251
 H1325 H 0.28114 0.25626 0.50844
 H1326 H 0.29018 0.26636 0.52907
 H1327 H 0.24076 0.26727 0.52060
 H1328 H 0.21918 0.24385 0.50849
 H1329 H 0.21010 0.23382 0.52915
 H1330 H 0.25038 0.22277 0.54137
 H1331 H 0.25951 0.23265 0.52059
 H1332 H 0.23290 0.25941 0.48033
 H1333 H 0.22299 0.25032 0.45956
 H1334 H 0.23385 0.20997 0.47180
 H1335 H 0.24392 0.21900 0.49245
 H1336 H 0.24984 0.27721 0.54135
 C1337 C 0.75491 0.74512 0.99988
 C1338 C 0.74519 0.75490 0.99989
 C1339 C 0.73996 0.76087 1.01254
 C1340 C 0.73922 0.76014 0.98726
 C1341 C 0.76083 0.73982 0.98724
 C1342 C 0.76017 0.73917 1.01253
 C1343 C 0.72600 0.76083 1.01506
 C1344 C 0.72087 0.76647 1.02685
 C1345 C 0.72962 0.77229 1.03622
 C1346 C 0.74355 0.77251 1.03373
 C1347 C 0.74870 0.76688 1.02191
 C1348 C 0.73322 0.75139 0.97788
 C1349 C 0.72755 0.75655 0.96610
 C1350 C 0.72769 0.77049 0.96365
 C1351 C 0.73350 0.77925 0.97303
 C1352 C 0.73920 0.77411 0.98478
 C1353 C 0.76686 0.74852 0.97782
 C1354 C 0.77246 0.74331 0.96602
 C1355 C 0.77220 0.72936 0.96360
 C1356 C 0.76636 0.72066 0.97301
 C1357 C 0.76074 0.72585 0.98478
 C1358 C 0.77414 0.73918 1.01498
 C1359 C 0.77928 0.73358 1.02677
 C1360 C 0.77054 0.72782 1.03621
 C1361 C 0.75661 0.72761 1.03376
 C1362 C 0.75144 0.73320 1.02194
 H1363 H 0.71909 0.75633 1.00793
 H1364 H 0.71007 0.76630 1.02865
 H1365 H 0.75041 0.77706 1.04088
 H1366 H 0.75948 0.76726 1.02003
 H1367 H 0.73288 0.74060 0.97973
 H1368 H 0.72300 0.74969 0.95894
 H1369 H 0.74368 0.78103 0.99192
 H1370 H 0.76727 0.75930 0.97965
 H1371 H 0.77703 0.75013 0.95883
 H1372 H 0.76615 0.70985 0.97125
 H1373 H 0.75623 0.71897 0.99195
 H1374 H 0.78104 0.74364 1.00780
 H1375 H 0.79009 0.73373 1.02853
 H1376 H 0.74976 0.72310 1.04096
 H1377 H 0.74066 0.73283 1.02011
 H1378 H 0.73362 0.79006 0.97126
 C1379 C 0.75482 0.24493 0.49970
 C1380 C 0.74509 0.25469 0.49973
 C1381 C 0.73987 0.26066 0.51238
 C1382 C 0.73913 0.25996 0.48710
 C1383 C 0.76075 0.23967 0.48704
 C1384 C 0.76010 0.23898 0.51233
 C1385 C 0.72591 0.26064 0.51489
 C1386 C 0.72078 0.26633 0.52666
 C1387 C 0.72955 0.27217 0.53601
 C1388 C 0.74347 0.27236 0.53352
 C1389 C 0.74862 0.26669 0.52172
 C1390 C 0.73305 0.25124 0.47776
 C1391 C 0.72737 0.25642 0.46599
 C1392 C 0.72761 0.27036 0.46353
 C1393 C 0.73351 0.27909 0.47287
 C1394 C 0.73919 0.27393 0.48461
 C1395 C 0.76682 0.24839 0.47768
 C1396 C 0.77249 0.24321 0.46590
 C1397 C 0.77225 0.22927 0.46345
 C1398 C 0.76636 0.22054 0.47280
 C1399 C 0.76067 0.22570 0.48455
 C1400 C 0.77408 0.23900 0.51474
 C1401 C 0.77926 0.23338 0.52651
 C1402 C 0.77054 0.22760 0.53595
 C1403 C 0.75660 0.22738 0.53355
 C1404 C 0.75140 0.23298 0.52175
 H1405 H 0.71899 0.25613 0.50777
 H1406 H 0.70999 0.26618 0.52846
 H1407 H 0.75033 0.27693 0.54066
 H1408 H 0.75939 0.26705 0.51984
 H1409 H 0.73266 0.24046 0.47961
 H1410 H 0.72276 0.24958 0.45885
 H1411 H 0.74375 0.28082 0.49173
 H1412 H 0.76722 0.25917 0.47954
 H1413 H 0.77710 0.25005 0.45876
 H1414 H 0.76617 0.20974 0.47102
 H1415 H 0.75613 0.21880 0.49169
 H1416 H 0.78096 0.24348 0.50756
 H1417 H 0.79006 0.23355 0.52824
 H1418 H 0.74978 0.22285 0.54076
 H1419 H 0.74062 0.23262 0.51995
 H1420 H 0.73369 0.28990 0.47109
 C1421 C 0.74518 0.24532 -0.00020
 C1422 C 0.75488 0.25510 -0.00018
 C1423 C 0.76015 0.26107 -0.01282
 C1424 C 0.76081 0.26034 0.01247
 C1425 C 0.73924 0.24001 0.01243
 C1426 C 0.73997 0.23937 -0.01286
 C1427 C 0.77412 0.26105 -0.01527
 C1428 C 0.77928 0.26668 -0.02705
 C1429 C 0.77054 0.27247 -0.03647
 C1430 C 0.75661 0.27268 -0.03402
 C1431 C 0.75143 0.26707 -0.02222
 C1432 C 0.76691 0.25160 0.02180
 C1433 C 0.77258 0.25676 0.03358
 C1434 C 0.77232 0.27069 0.03607
 C1435 C 0.76640 0.27944 0.02673
 C1436 C 0.76072 0.27431 0.01498
 C1437 C 0.73317 0.24870 0.02183
 C1438 C 0.72752 0.24347 0.03360
 C1439 C 0.72776 0.22952 0.03601
 C1440 C 0.73363 0.22082 0.02660
 C1441 C 0.73930 0.22603 0.01486
 C1442 C 0.72601 0.23940 -0.01537
 C1443 C 0.72091 0.23373 -0.02714
 C1444 C 0.72968 0.22788 -0.03650
 C1445 C 0.74361 0.22769 -0.03402
 C1446 C 0.74874 0.23335 -0.02223
 H1447 H 0.78102 0.25656 -0.00811
 H1448 H 0.79008 0.26652 -0.02882
 H1449 H 0.74977 0.27722 -0.04121
 H1450 H 0.74065 0.26744 -0.02038
 H1451 H 0.76733 0.24082 0.01992
 H1452 H 0.77720 0.24991 0.04070
 H1453 H 0.75616 0.28121 0.00787
 H1454 H 0.73277 0.25949 0.02002
 H1455 H 0.72292 0.25029 0.04079
 H1456 H 0.73382 0.21001 0.02834
 H1457 H 0.74384 0.21916 0.00769
 H1458 H 0.71909 0.24391 -0.00824
 H1459 H 0.71011 0.23388 -0.02893
 H1460 H 0.75048 0.22311 -0.04117
 H1461 H 0.75951 0.23299 -0.02036
 H1462 H 0.76620 0.29024 0.02853
 C1463 C 0.74559 0.74491 0.50007
 C1464 C 0.75443 0.75536 0.50006
 C1465 C 0.75993 0.76082 0.48739
 C1466 C 0.75988 0.76096 0.51270
 C1467 C 0.74007 0.73946 0.51273
 C1468 C 0.74011 0.73934 0.48744
 C1469 C 0.77027 0.75388 0.48067
 C1470 C 0.77572 0.75914 0.46883
 C1471 C 0.77084 0.77136 0.46363
 C1472 C 0.76041 0.77823 0.47025
 C1473 C 0.75496 0.77298 0.48208
 C1474 C 0.76878 0.75326 0.52056
 C1475 C 0.77419 0.75863 0.53235
 C1476 C 0.77077 0.77177 0.53635
 C1477 C 0.76185 0.77947 0.52857
 C1478 C 0.75643 0.77409 0.51679
 C1479 C 0.72989 0.74653 0.51957
 C1480 C 0.72441 0.74128 0.53140
 C1481 C 0.72910 0.72894 0.53648
 C1482 C 0.73938 0.72193 0.52975
 C1483 C 0.74485 0.72717 0.51792
 C1484 C 0.73103 0.74699 0.47973
 C1485 C 0.72561 0.74165 0.46793
 C1486 C 0.72919 0.72861 0.46377
 C1487 C 0.73827 0.72096 0.47141
 C1488 C 0.74372 0.72630 0.48320
 H1489 H 0.77416 0.74446 0.48465
 H1490 H 0.78378 0.75373 0.46379
 H1491 H 0.75654 0.78767 0.46629
 H1492 H 0.74685 0.77836 0.48705
 H1493 H 0.77161 0.74314 0.51749
 H1494 H 0.78110 0.75260 0.53828
 H1495 H 0.74951 0.78015 0.51092
 H1496 H 0.72614 0.75604 0.51567
 H1497 H 0.71647 0.74678 0.53652
 H1498 H 0.74310 0.71240 0.53362
 H1499 H 0.75283 0.72169 0.51287
 H1500 H 0.72809 0.75703 0.48292
 H1501 H 0.71856 0.74764 0.46211
 H1502 H 0.74110 0.71086 0.46828
 H1503 H 0.75078 0.72029 0.48895
 H1504 H 0.75914 0.78964 0.53158
 C1505 C 1.00026 0.25553 0.24556
 C1506 C 1.00025 0.24503 0.25427
 C1507 C 1.01297 0.23943 0.25971
 C1508 C 0.98749 0.23950 0.25964
 C1509 C 0.98753 0.26113 0.24013
 C1510 C 1.01302 0.26103 0.24015
 C1511 C 1.01716 0.22633 0.25622
 C1512 C 1.02903 0.22095 0.26163
 C1513 C 1.03679 0.22860 0.27057
 C1514 C 1.03269 0.24170 0.27402
 C1515 C 1.02082 0.24709 0.26863
 C1516 C 0.98218 0.22738 0.25458
 C1517 C 0.97025 0.22206 0.25989
 C1518 C 0.96353 0.22881 0.27029
 C1519 C 0.96872 0.24098 0.27526
 C1520 C 0.98066 0.24632 0.26995
 C1521 C 0.98326 0.27415 0.24375
 C1522 C 0.97139 0.27954 0.23834
 C1523 C 0.96371 0.27195 0.22927
 C1524 C 0.96790 0.25892 0.22569
 C1525 C 0.97978 0.25353 0.23108
 C1526 C 1.01827 0.27324 0.24502
 C1527 C 1.03018 0.27854 0.23963
 C1528 C 1.03693 0.27168 0.22933
 C1529 C 1.03180 0.25940 0.22455
 C1530 C 1.01989 0.25408 0.22994
 H1531 H 1.01130 0.22031 0.24929
 H1532 H 1.03211 0.21081 0.25889
 H1533 H 1.03860 0.24769 0.28096
 H1534 H 1.01766 0.25717 0.27149
 H1535 H 0.98723 0.22209 0.24651
 H1536 H 0.96629 0.21266 0.25596
 H1537 H 0.98464 0.25570 0.27392
 H1538 H 0.98905 0.28012 0.25078
 H1539 H 0.96824 0.28964 0.24117
 H1540 H 0.96206 0.25297 0.21866
 H1541 H 0.98300 0.24349 0.22813
 H1542 H 1.01319 0.27863 0.25302
 H1543 H 1.03409 0.28802 0.24343
 H1544 H 1.03694 0.25400 0.21659
 H1545 H 1.01596 0.24462 0.22611
 H1546 H 0.96360 0.24628 0.28330
 C1547 C 0.50060 0.25522 0.74577
 C1548 C 0.50059 0.24476 0.75454
 C1549 C 0.51332 0.23924 0.75999
 C1550 C 0.48783 0.23914 0.75989
 C1551 C 0.48786 0.26065 0.74026
 C1552 C 0.51335 0.26081 0.74037
 C1553 C 0.51859 0.22703 0.75511
 C1554 C 0.53045 0.22168 0.76055
 C1555 C 0.53714 0.22850 0.77090
 C1556 C 0.53198 0.24078 0.77570
 C1557 C 0.52011 0.24614 0.77026
 C1558 C 0.48362 0.22612 0.75623
 C1559 C 0.47172 0.22071 0.76155
 C1560 C 0.46395 0.22828 0.77057
 C1561 C 0.46807 0.24132 0.77419
 C1562 C 0.47997 0.24672 0.76889
 C1563 C 0.48243 0.27278 0.74518
 C1564 C 0.47049 0.27798 0.73974
 C1565 C 0.46391 0.27110 0.72936
 C1566 C 0.46923 0.25890 0.72454
 C1567 C 0.48116 0.25369 0.72998
 C1568 C 0.51749 0.27391 0.74383
 C1569 C 0.52935 0.27931 0.73841
 C1570 C 0.53714 0.27167 0.72946
 C1571 C 0.53309 0.25855 0.72604
 C1572 C 0.52123 0.25315 0.73145
 H1573 H 0.51356 0.22168 0.74707
 H1574 H 0.53438 0.21221 0.75673
 H1575 H 0.53707 0.24614 0.78370
 H1576 H 0.51615 0.25559 0.77410
 H1577 H 0.48949 0.22016 0.74923
 H1578 H 0.46863 0.21061 0.75868
 H1579 H 0.48314 0.25676 0.77186
 H1580 H 0.48738 0.27817 0.75323
 H1581 H 0.46644 0.28740 0.74357
 H1582 H 0.46422 0.25349 0.71652
 H1583 H 0.48524 0.24429 0.72613
 H1584 H 0.51159 0.27994 0.75075
 H1585 H 0.53239 0.28946 0.74112
 H1586 H 0.53903 0.25256 0.71911
 H1587 H 0.51811 0.24306 0.72860
 H1588 H 0.46214 0.24725 0.78119
 C1589 C -0.00043 0.24476 0.74502
 C1590 C -0.00049 0.25459 0.75460
 C1591 C -0.01326 0.26056 0.75977
 C1592 C 0.01222 0.25989 0.76051
 C1593 C 0.01234 0.23943 0.73922
 C1594 C -0.01314 0.23879 0.73980
 C1595 C -0.02269 0.26657 0.75107
 C1596 C -0.03456 0.27231 0.75618
 C1597 C -0.03703 0.27221 0.77001
 C1598 C -0.02759 0.26637 0.77871
 C1599 C -0.01576 0.26062 0.77363
 C1600 C 0.01472 0.27386 0.76035
 C1601 C 0.02652 0.27905 0.76601
 C1602 C 0.03593 0.27035 0.77195
 C1603 C 0.03346 0.25641 0.77227
 C1604 C 0.02163 0.25120 0.76663
 C1605 C 0.01480 0.22545 0.73935
 C1606 C 0.02665 0.22021 0.73377
 C1607 C 0.03614 0.22888 0.72793
 C1608 C 0.03371 0.24283 0.72764
 C1609 C 0.02183 0.24809 0.73320
 C1610 C -0.02262 0.23279 0.74846
 C1611 C -0.03447 0.22710 0.74331
 C1612 C -0.03687 0.22725 0.72947
 C1613 C -0.02738 0.23305 0.72081
 C1614 C -0.01557 0.23875 0.72593
 H1615 H -0.02083 0.26687 0.74038
 H1616 H -0.04176 0.27687 0.74936
 H1617 H -0.02938 0.26629 0.78943
 H1618 H -0.00857 0.25613 0.78050
 H1619 H 0.00755 0.28072 0.75576
 H1620 H 0.02831 0.28985 0.76576
 H1621 H 0.01976 0.24042 0.76709
 H1622 H 0.00757 0.21860 0.74385
 H1623 H 0.02840 0.20940 0.73400
 H1624 H 0.04095 0.24963 0.72306
 H1625 H 0.02000 0.25887 0.73275
 H1626 H -0.02080 0.23246 0.75916
 H1627 H -0.04171 0.22255 0.75009
 H1628 H -0.02912 0.23317 0.71008
 H1629 H -0.00834 0.24324 0.71910
 H1630 H 0.04064 0.24960 0.77692
 C1631 C 0.49981 0.24441 0.24553
 C1632 C 0.49980 0.25489 0.25426
 C1633 C 0.48705 0.26051 0.25967
 C1634 C 0.51255 0.26040 0.25966
 C1635 C 0.51256 0.23881 0.24014
 C1636 C 0.48707 0.23892 0.24008
 C1637 C 0.48290 0.27360 0.25616
 C1638 C 0.47102 0.27901 0.26154
 C1639 C 0.46321 0.27137 0.27048
 C1640 C 0.46728 0.25827 0.27395
 C1641 C 0.47917 0.25287 0.26859
 C1642 C 0.51788 0.27252 0.25463
 C1643 C 0.52981 0.27781 0.25996
 C1644 C 0.53649 0.27103 0.27035
 C1645 C 0.53127 0.25885 0.27530
 C1646 C 0.51934 0.25355 0.26997
 C1647 C 0.51682 0.22579 0.24379
 C1648 C 0.52873 0.22042 0.23845
 C1649 C 0.53646 0.22802 0.22942
 C1650 C 0.53229 0.24105 0.22581
 C1651 C 0.52037 0.24642 0.23114
 C1652 C 0.48178 0.22673 0.24497
 C1653 C 0.46988 0.22144 0.23955
 C1654 C 0.46320 0.22830 0.22921
 C1655 C 0.46837 0.24056 0.22442
 C1656 C 0.48026 0.24586 0.22984
 H1657 H 0.48879 0.27961 0.24923
 H1658 H 0.46796 0.28915 0.25879
 H1659 H 0.46134 0.25230 0.28089
 H1660 H 0.48230 0.24278 0.27147
 H1661 H 0.51285 0.27783 0.24656
 H1662 H 0.53380 0.28721 0.25603
 H1663 H 0.51533 0.24417 0.27392
 H1664 H 0.51098 0.21982 0.25079
 H1665 H 0.53186 0.21032 0.24130
 H1666 H 0.53818 0.24700 0.21881
 H1667 H 0.51717 0.25646 0.22818
 H1668 H 0.48681 0.22135 0.25299
 H1669 H 0.46594 0.21197 0.24336
 H1670 H 0.46328 0.24596 0.21643
 H1671 H 0.48424 0.25531 0.22601
 H1672 H 0.53636 0.25352 0.28333
 C1673 C 1.00041 0.75554 0.74554
 C1674 C 1.00039 0.74505 0.75427
 C1675 C 1.01311 0.73941 0.75967
 C1676 C 0.98763 0.73959 0.75971
 C1677 C 0.98768 0.76112 0.74009
 C1678 C 1.01317 0.76104 0.74014
 C1679 C 1.01729 0.72633 0.75612
 C1680 C 1.02915 0.72091 0.76150
 C1681 C 1.03692 0.72851 0.77048
 C1682 C 1.03282 0.74159 0.77400
 C1683 C 1.02096 0.74702 0.76863
 C1684 C 0.98229 0.72744 0.75477
 C1685 C 0.97038 0.72217 0.76020
 C1686 C 0.96373 0.72902 0.77058
 C1687 C 0.96896 0.74123 0.77541
 C1688 C 0.98087 0.74651 0.76999
 C1689 C 0.98342 0.77417 0.74362
 C1690 C 0.97155 0.77953 0.73819
 C1691 C 0.96386 0.77188 0.72919
 C1692 C 0.96804 0.75882 0.72568
 C1693 C 0.97991 0.75347 0.73110
 C1694 C 1.01844 0.77321 0.74508
 C1695 C 1.03037 0.77851 0.73972
 C1696 C 1.03710 0.77166 0.72939
 C1697 C 1.03194 0.75942 0.72455
 C1698 C 1.02002 0.75411 0.72992
 H1699 H 1.01142 0.72035 0.74916
 H1700 H 1.03222 0.71078 0.75872
 H1701 H 1.03874 0.74755 0.78097
 H1702 H 1.01781 0.75709 0.77154
 H1703 H 0.98730 0.72208 0.74672
 H1704 H 0.96640 0.71274 0.75636
 H1705 H 0.98488 0.75592 0.77386
 H1706 H 0.98923 0.78019 0.75061
 H1707 H 0.96841 0.78964 0.74097
 H1708 H 0.96218 0.75284 0.71870
 H1709 H 0.98313 0.74341 0.72820
 H1710 H 1.01337 0.77858 0.75309
 H1711 H 1.03430 0.78796 0.74356
 H1712 H 1.03708 0.75404 0.71657
 H1713 H 1.01607 0.74468 0.72605
 H1714 H 0.96389 0.74661 0.78344
 C1715 C 0.50008 0.75553 0.24566
 C1716 C 0.50014 0.74502 0.25436
 C1717 C 0.51290 0.73943 0.25974
 C1718 C 0.48741 0.73945 0.25978
 C1719 C 0.48731 0.76109 0.24027
 C1720 C 0.51280 0.76105 0.24017
 C1721 C 0.51711 0.72636 0.25619
 C1722 C 0.52896 0.72095 0.26162
 C1723 C 0.53668 0.72854 0.27065
 C1724 C 0.53256 0.74162 0.27415
 C1725 C 0.52071 0.74704 0.26873
 C1726 C 0.48215 0.72728 0.25481
 C1727 C 0.47025 0.72193 0.26017
 C1728 C 0.46352 0.72871 0.27053
 C1729 C 0.46865 0.74094 0.27543
 C1730 C 0.48055 0.74630 0.27006
 C1731 C 0.48310 0.77417 0.24377
 C1732 C 0.47123 0.77954 0.23835
 C1733 C 0.46349 0.77189 0.22939
 C1734 C 0.46761 0.75880 0.22594
 C1735 C 0.47949 0.75343 0.23134
 C1736 C 0.51805 0.77327 0.24502
 C1737 C 0.52991 0.77861 0.23953
 C1738 C 0.53659 0.77177 0.22917
 C1739 C 0.53143 0.75950 0.22439
 C1740 C 0.51958 0.75415 0.22988
 H1741 H 0.51128 0.72038 0.24920
 H1742 H 0.53205 0.71082 0.25883
 H1743 H 0.53844 0.74757 0.28115
 H1744 H 0.51753 0.75710 0.27164
 H1745 H 0.48722 0.72198 0.24675
 H1746 H 0.46634 0.71249 0.25628
 H1747 H 0.48449 0.75573 0.27396
 H1748 H 0.48895 0.78020 0.25071
 H1749 H 0.46813 0.78968 0.24109
 H1750 H 0.46171 0.75280 0.21900
 H1751 H 0.48267 0.74336 0.22846
 H1752 H 0.51303 0.77864 0.25306
 H1753 H 0.53382 0.78809 0.24332
 H1754 H 0.53652 0.75412 0.21638
 H1755 H 0.51562 0.74470 0.22606
 H1756 H 0.46352 0.74628 0.28344
 C1757 C -0.00036 0.74497 0.24514
 C1758 C -0.00037 0.75477 0.25475
 C1759 C -0.01312 0.76077 0.25993
 C1760 C 0.01236 0.76011 0.26057
 C1761 C 0.01240 0.73969 0.23925
 C1762 C -0.01308 0.73901 0.23991
 C1763 C -0.02256 0.76677 0.25123
 C1764 C -0.03441 0.77254 0.25634
 C1765 C -0.03686 0.77247 0.27017
 C1766 C -0.02742 0.76666 0.27887
 C1767 C -0.01560 0.76087 0.27379
 C1768 C 0.01480 0.77409 0.26042
 C1769 C 0.02664 0.77933 0.26597
 C1770 C 0.03614 0.77066 0.27181
 C1771 C 0.03374 0.75671 0.27213
 C1772 C 0.02187 0.75146 0.26659
 C1773 C 0.01491 0.72572 0.23934
 C1774 C 0.02675 0.72055 0.23368
 C1775 C 0.03616 0.72927 0.22778
 C1776 C 0.03367 0.74321 0.22753
 C1777 C 0.02181 0.74840 0.23318
 C1778 C -0.02257 0.73301 0.24856
 C1779 C -0.03440 0.72728 0.24339
 C1780 C -0.03678 0.72741 0.22955
 C1781 C -0.02730 0.73325 0.22090
 C1782 C -0.01551 0.73898 0.22604
 H1783 H -0.02070 0.76706 0.24053
 H1784 H -0.04161 0.77710 0.24952
 H1785 H -0.02918 0.76661 0.28960
 H1786 H -0.00840 0.75640 0.28066
 H1787 H 0.00756 0.78094 0.25591
 H1788 H 0.02837 0.79014 0.26572
 H1789 H 0.02005 0.74067 0.26705
 H1790 H 0.00774 0.71883 0.24388
 H1791 H 0.02854 0.70974 0.23387
 H1792 H 0.04085 0.75004 0.22292
 H1793 H 0.01992 0.75918 0.23276
 H1794 H -0.02077 0.73269 0.25926
 H1795 H -0.04164 0.72272 0.25017
 H1796 H -0.02902 0.73337 0.21018
 H1797 H -0.00828 0.74349 0.21921
 H1798 H 0.04099 0.74993 0.27670
 C1799 C 0.49939 0.74507 0.74522
 C1800 C 0.49940 0.75489 0.75480
 C1801 C 0.48667 0.76027 0.76063
 C1802 C 0.51214 0.76082 0.75999
 C1803 C 0.51212 0.73909 0.74000
 C1804 C 0.48665 0.73976 0.73939
 C1805 C 0.48423 0.77425 0.76044
 C1806 C 0.47240 0.77953 0.76601
 C1807 C 0.46290 0.77090 0.77191
 C1808 C 0.46532 0.75694 0.77227
 C1809 C 0.47718 0.75165 0.76672
 C1810 C 0.52159 0.76685 0.75132
 C1811 C 0.53346 0.77250 0.75644
 C1812 C 0.53593 0.77228 0.77027
 C1813 C 0.52649 0.76643 0.77894
 C1814 C 0.51464 0.76077 0.77384
 C1815 C 0.52156 0.73303 0.74865
 C1816 C 0.53343 0.72735 0.74350
 C1817 C 0.53590 0.72757 0.72967
 C1818 C 0.52646 0.73345 0.72101
 C1819 C 0.51462 0.73914 0.72614
 C1820 C 0.48418 0.72578 0.73957
 C1821 C 0.47235 0.72056 0.73398
 C1822 C 0.46290 0.72924 0.72806
 C1823 C 0.46534 0.74318 0.72773
 C1824 C 0.47719 0.74842 0.73331
 H1825 H 0.49146 0.78107 0.75589
 H1826 H 0.47066 0.79034 0.76573
 H1827 H 0.45807 0.75018 0.77689
 H1828 H 0.47900 0.74086 0.76721
 H1829 H 0.51972 0.76723 0.74063
 H1830 H 0.54067 0.77709 0.74965
 H1831 H 0.50744 0.75625 0.78069
 H1832 H 0.51970 0.73266 0.75934
 H1833 H 0.54064 0.72275 0.75028
 H1834 H 0.52825 0.73363 0.71030
 H1835 H 0.50742 0.74368 0.71931
 H1836 H 0.49138 0.71893 0.74412
 H1837 H 0.47059 0.70975 0.73423
 H1838 H 0.45812 0.74998 0.72311
 H1839 H 0.47904 0.75920 0.73284
 H1840 H 0.52827 0.76625 0.78966
 C1841 C 0.41837 0.29607 0.27972
 C1842 C 0.40727 0.28819 0.28740
 C1843 C 0.40770 0.29892 0.29852
 C1844 C 0.41861 0.30690 0.29094
 C1845 C 0.42919 0.28802 0.28736
 C1846 C 0.42961 0.29876 0.29848
 C1847 C 0.41828 0.28005 0.29494
 C1848 C 0.41852 0.29088 0.30615
 C1849 C 0.39575 0.30498 0.30478
 C1850 C 0.38593 0.30993 0.30995
 C1851 C 0.44122 0.28200 0.28123
 C1852 C 0.45120 0.27710 0.27628
 H1853 H 0.41843 0.29814 0.26878
 H1854 H 0.39794 0.28391 0.28292
 H1855 H 0.41861 0.31801 0.28936
 H1856 H 0.43894 0.30304 0.30296
 H1857 H 0.41827 0.26893 0.29651
 H1858 H 0.41846 0.28881 0.31709
 C1859 C 0.42811 0.79345 0.80267
 C1860 C 0.42081 0.80609 0.79705
 C1861 C 0.40720 0.79892 0.79909
 C1862 C 0.41432 0.78637 0.80479
 C1863 C 0.42870 0.78756 0.78842
 C1864 C 0.41510 0.78039 0.79046
 C1865 C 0.42158 0.80012 0.78272
 C1866 C 0.40778 0.79304 0.78484
 C1867 C 0.39526 0.80522 0.80512
 C1868 C 0.38544 0.81034 0.81016
 C1869 C 0.44077 0.78136 0.78253
 C1870 C 0.45080 0.77646 0.77769
 H1871 H 0.43660 0.79353 0.80993
 H1872 H 0.42303 0.81673 0.79983
 H1873 H 0.41120 0.78080 0.81395
 H1874 H 0.41288 0.76975 0.78768
 H1875 H 0.42470 0.80570 0.77357
 H1876 H 0.39929 0.79296 0.77758
 C1877 C -0.08035 0.28167 0.79643
 C1878 C -0.08037 0.29445 0.80540
 C1879 C -0.09275 0.29972 0.79772
 C1880 C -0.09292 0.28703 0.78884
 C1881 C -0.07124 0.28908 0.78634
 C1882 C -0.08362 0.29434 0.77866
 C1883 C -0.07107 0.30177 0.79522
 C1884 C -0.08364 0.30713 0.78764
 C1885 C -0.10469 0.30567 0.80411
 C1886 C -0.11449 0.31060 0.80939
 C1887 C -0.05917 0.28312 0.78019
 C1888 C -0.04914 0.27818 0.77539
 H1889 H -0.07886 0.27114 0.79997
 H1890 H -0.07915 0.29455 0.81646
 H1891 H -0.10203 0.28102 0.78630
 H1892 H -0.08483 0.29424 0.76759
 H1893 H -0.06197 0.30778 0.79778
 H1894 H -0.08513 0.31767 0.78411
 C1895 C -0.08024 0.78186 0.29647
 C1896 C -0.08031 0.79463 0.30545
 C1897 C -0.09269 0.79986 0.29775
 C1898 C -0.09281 0.78717 0.28887
 C1899 C -0.07113 0.78929 0.28640
 C1900 C -0.08351 0.79452 0.27870
 C1901 C -0.07102 0.80198 0.29529
 C1902 C -0.08359 0.80731 0.28768
 C1903 C -0.10465 0.80575 0.30416
 C1904 C -0.11446 0.81062 0.30948
 C1905 C -0.05903 0.78336 0.28030
 C1906 C -0.04898 0.77843 0.27553
 H1907 H -0.07873 0.77132 0.30001
 H1908 H -0.07911 0.79474 0.31651
 H1909 H -0.10191 0.78115 0.28631
 H1910 H -0.08470 0.79441 0.26763
 H1911 H -0.06193 0.80801 0.29785
 H1912 H -0.08510 0.81784 0.28415
 C1913 C 0.57379 0.71237 0.30269
 C1914 C 0.57758 0.69718 0.30220
 C1915 C 0.59220 0.70111 0.29877
 C1916 C 0.58859 0.71621 0.29934
 C1917 C 0.57066 0.71190 0.28761
 C1918 C 0.58527 0.71583 0.28417
 C1919 C 0.57426 0.69680 0.28703
 C1920 C 0.58906 0.70064 0.28369
 C1921 C 0.60418 0.69512 0.30502
 C1922 C 0.61404 0.69020 0.31017
 C1923 C 0.55863 0.71791 0.28147
 C1924 C 0.54866 0.72280 0.27650
 H1925 H 0.56740 0.71726 0.31045
 H1926 H 0.57455 0.68943 0.30967
 H1927 H 0.59463 0.72411 0.30448
 H1928 H 0.58832 0.72356 0.27669
 H1929 H 0.56823 0.68889 0.28189
 H1930 H 0.59547 0.69573 0.27595
 C1931 C 0.58566 0.21637 0.78517
 C1932 C 0.58848 0.21567 0.80043
 C1933 C 0.59257 0.20077 0.79885
 C1934 C 0.58994 0.20137 0.78368
 C1935 C 0.57108 0.21176 0.78781
 C1936 C 0.57517 0.19686 0.78623
 C1937 C 0.57371 0.21116 0.80298
 C1938 C 0.57799 0.19617 0.80149
 C1939 C 0.60452 0.19467 0.80505
 C1940 C 0.61436 0.18968 0.81017
 C1941 C 0.55908 0.21785 0.78171
 C1942 C 0.54913 0.22277 0.77674
 H1943 H 0.58869 0.22474 0.77839
 H1944 H 0.59408 0.22334 0.80635
 H1945 H 0.59675 0.19726 0.77582
 H1946 H 0.56957 0.18919 0.78031
 H1947 H 0.56690 0.21526 0.81083
 H1948 H 0.57495 0.18779 0.80826
 C1949 C 1.08364 0.70746 0.77963
 C1950 C 1.09247 0.71426 0.79054
 C1951 C 1.09239 0.70096 0.79851
 C1952 C 1.08375 0.69407 0.78770
 C1953 C 1.07093 0.71187 0.78733
 C1954 C 1.07085 0.69857 0.79530
 C1955 C 1.07957 0.71876 0.79814
 C1956 C 1.07967 0.70537 0.80620
 C1957 C 1.10430 0.69489 0.80480
 C1958 C 1.11408 0.68990 0.81003
 C1959 C 1.05891 0.71789 0.78121
 C1960 C 1.04893 0.72278 0.77627
 H1961 H 1.08515 0.70839 0.76864
 H1962 H 1.10150 0.72063 0.78866
 H1963 H 1.08561 0.68385 0.78348
 H1964 H 1.06183 0.69219 0.79719
 H1965 H 1.07772 0.72898 0.80236
 H1966 H 1.07817 0.70444 0.81719
 C1967 C 1.07394 0.19685 0.28770
 C1968 C 1.08876 0.20008 0.28386
 C1969 C 1.09223 0.20124 0.29883
 C1970 C 1.07760 0.19792 0.30276
 C1971 C 1.07077 0.21206 0.28758
 C1972 C 1.07425 0.21322 0.30254
 C1973 C 1.08541 0.21539 0.28364
 C1974 C 1.08907 0.21645 0.29871
 C1975 C 1.10416 0.19521 0.30512
 C1976 C 1.11399 0.19027 0.31030
 C1977 C 1.05876 0.21804 0.28139
 C1978 C 1.04879 0.22290 0.27641
 H1979 H 1.06759 0.18886 0.28310
 H1980 H 1.09487 0.19461 0.27626
 H1981 H 1.07451 0.19067 0.31069
 H1982 H 1.06815 0.21869 0.31015
 H1983 H 1.08850 0.22263 0.27572
 H1984 H 1.09543 0.22443 0.30332
 C1985 C 0.58570 0.28595 0.71727
 C1986 C 0.59015 0.28378 0.70252
 C1987 C 0.59263 0.29906 0.70122
 C1988 C 0.58837 0.30132 0.71587
 C1989 C 0.57114 0.28824 0.71244
 C1990 C 0.57363 0.30351 0.71114
 C1991 C 0.57540 0.28598 0.69779
 C1992 C 0.57807 0.30134 0.69640
 C1993 C 0.60460 0.30510 0.69497
 C1994 C 0.61444 0.31007 0.68983
 C1995 C 0.55911 0.28225 0.71861
 C1996 C 0.54914 0.27738 0.72361
 H1997 H 0.58871 0.27956 0.72591
 H1998 H 0.59707 0.27573 0.69890
 H1999 H 0.59384 0.30771 0.72323
 H2000 H 0.56671 0.31157 0.71476
 H2001 H 0.56993 0.27959 0.69043
 H2002 H 0.57506 0.30773 0.68775
 C2003 C 0.57044 0.79769 0.20003
 C2004 C 0.58056 0.80714 0.20726
 C2005 C 0.59229 0.79899 0.20122
 C2006 C 0.58235 0.78962 0.19389
 C2007 C 0.57067 0.78823 0.21225
 C2008 C 0.58240 0.78007 0.20620
 C2009 C 0.58060 0.79759 0.21958
 C2010 C 0.59252 0.78952 0.21343
 C2011 C 0.60429 0.80500 0.19502
 C2012 C 0.61415 0.80996 0.18989
 C2013 C 0.55859 0.78228 0.21834
 C2014 C 0.54860 0.77744 0.22331
 H2015 H 0.56123 0.80099 0.19458
 H2016 H 0.57992 0.81834 0.20764
 H2017 H 0.58321 0.78642 0.18326
 H2018 H 0.58302 0.76887 0.20583
 H2019 H 0.57973 0.80080 0.23021
 H2020 H 0.60172 0.78623 0.21888
 C2021 C 1.07055 0.29765 0.20005
 C2022 C 1.08066 0.30718 0.20719
 C2023 C 1.09239 0.29907 0.20108
 C2024 C 1.08247 0.28963 0.19385
 C2025 C 1.07092 0.28823 0.21229
 C2026 C 1.08265 0.28011 0.20618
 C2027 C 1.08084 0.29766 0.21952
 C2028 C 1.09276 0.28964 0.21332
 C2029 C 1.10436 0.30510 0.19484
 C2030 C 1.11421 0.31006 0.18972
 C2031 C 1.05890 0.28223 0.21847
 C2032 C 1.04894 0.27737 0.22348
 H2033 H 1.06128 0.30088 0.19466
 H2034 H 1.07997 0.31838 0.20752
 H2035 H 1.08325 0.28640 0.18322
 H2036 H 1.08332 0.26892 0.20585
 H2037 H 1.08004 0.30090 0.23015
 H2038 H 1.10203 0.28642 0.21871
 C2039 C 1.08568 0.78590 0.71730
 C2040 C 1.09014 0.78375 0.70255
 C2041 C 1.09262 0.79903 0.70129
 C2042 C 1.08835 0.80127 0.71593
 C2043 C 1.07112 0.78819 0.71245
 C2044 C 1.07361 0.80347 0.71118
 C2045 C 1.07540 0.78595 0.69781
 C2046 C 1.07807 0.80132 0.69645
 C2047 C 1.10458 0.80506 0.69505
 C2048 C 1.11441 0.81002 0.68990
 C2049 C 1.05910 0.78220 0.71860
 C2050 C 1.04912 0.77735 0.72357
 H2051 H 1.08867 0.77950 0.72594
 H2052 H 1.09707 0.77571 0.69893
 H2053 H 1.09381 0.80765 0.72330
 H2054 H 1.06668 0.81151 0.71480
 H2055 H 1.06993 0.77958 0.69043
 H2056 H 1.07507 0.80773 0.68781
 C2057 C 0.41770 0.72047 0.70381
 C2058 C 0.41792 0.70941 0.69281
 C2059 C 0.40724 0.70146 0.70074
 C2060 C 0.40683 0.71242 0.71164
 C2061 C 0.42875 0.71272 0.71142
 C2062 C 0.41807 0.70476 0.71934
 C2063 C 0.42915 0.70175 0.70052
 C2064 C 0.41828 0.69370 0.70835
 C2065 C 0.39527 0.69521 0.69472
 C2066 C 0.38544 0.69012 0.68971
 C2067 C 0.44080 0.71887 0.71735
 C2068 C 0.45081 0.72373 0.72223
 H2069 H 0.41760 0.73155 0.70201
 H2070 H 0.41773 0.71124 0.68184
 H2071 H 0.39752 0.71672 0.71615
 H2072 H 0.41826 0.70292 0.73032
 H2073 H 0.43846 0.69744 0.69600
 H2074 H 0.41840 0.68263 0.71015
 C2075 C 0.42761 0.19670 0.20903
 C2076 C 0.41312 0.19719 0.21491
 C2077 C 0.40771 0.20103 0.20098
 C2078 C 0.42202 0.20045 0.19501
 C2079 C 0.42921 0.21182 0.21218
 C2080 C 0.42381 0.21566 0.19825
 C2081 C 0.41491 0.21240 0.21815
 C2082 C 0.40932 0.21615 0.20413
 C2083 C 0.39573 0.19502 0.19475
 C2084 C 0.38587 0.19007 0.18966
 C2085 C 0.44123 0.21778 0.21836
 C2086 C 0.45120 0.22263 0.22335
 H2087 H 0.43526 0.18876 0.21112
 H2088 H 0.40859 0.18952 0.22168
 H2089 H 0.42482 0.19547 0.18543
 H2090 H 0.42834 0.22332 0.19148
 H2091 H 0.41211 0.21738 0.22774
 H2092 H 0.40167 0.22409 0.20204
 C2093 C -0.07280 0.69564 0.20994
 C2094 C -0.08729 0.69629 0.21581
 C2095 C -0.09264 0.70030 0.20191
 C2096 C -0.07834 0.69956 0.19594
 C2097 C -0.07100 0.71071 0.21319
 C2098 C -0.07635 0.71472 0.19928
 C2099 C -0.08530 0.71146 0.21916
 C2100 C -0.09083 0.71537 0.20515
 C2101 C -0.10467 0.69449 0.19558
 C2102 C -0.11454 0.68969 0.19037
 C2103 C -0.05890 0.71659 0.21931
 C2104 C -0.04887 0.72148 0.22412
 H2105 H -0.06526 0.68758 0.21197
 H2106 H -0.09192 0.68863 0.22253
 H2107 H -0.07560 0.69461 0.18632
 H2108 H -0.07171 0.72236 0.19256
 H2109 H -0.08802 0.71640 0.22877
 H2110 H -0.09837 0.72343 0.20310
 C2111 C -0.08362 0.21886 0.70883
 C2112 C -0.08371 0.21119 0.69529
 C2113 C -0.09266 0.20025 0.70167
 C2114 C -0.09275 0.20782 0.71511
 C2115 C -0.07112 0.21070 0.71308
 C2116 C -0.08006 0.19975 0.71946
 C2117 C -0.07104 0.20312 0.69964
 C2118 C -0.08016 0.19209 0.70592
 C2119 C -0.10460 0.19438 0.69526
 C2120 C -0.11438 0.18949 0.68997
 C2121 C -0.05904 0.21654 0.71924
 C2122 C -0.04899 0.22139 0.72406
 H2123 H -0.08490 0.22994 0.71012
 H2124 H -0.08534 0.21583 0.68529
 H2125 H -0.10183 0.20970 0.72140
 H2126 H -0.07843 0.19511 0.72946
 H2127 H -0.06197 0.20124 0.69334
 H2128 H -0.07887 0.18101 0.70463
 C2129 C 0.28851 0.41527 0.28131
 C2130 C 0.30346 0.41387 0.28572
 C2131 C 0.29871 0.40774 0.29906
 C2132 C 0.28385 0.40894 0.29475
 C2133 C 0.28804 0.42932 0.28786
 C2134 C 0.28328 0.42318 0.30121
 C2135 C 0.30289 0.42811 0.29217
 C2136 C 0.29823 0.42178 0.30561
 C2137 C 0.30469 0.39575 0.30531
 C2138 C 0.30964 0.38589 0.31043
 C2139 C 0.28215 0.44140 0.28171
 C2140 C 0.27737 0.45142 0.27675
 H2141 H 0.28446 0.41272 0.27125
 H2142 H 0.31183 0.40992 0.27942
 H2143 H 0.27610 0.40092 0.29589
 H2144 H 0.27491 0.42714 0.30751
 H2145 H 0.31065 0.43612 0.29103
 H2146 H 0.30229 0.42433 0.31567
 C2147 C 0.29429 -0.08304 0.78008
 C2148 C 0.30675 -0.08298 0.78948
 C2149 C 0.29926 -0.09258 0.79903
 C2150 C 0.28689 -0.09283 0.78974
 C2151 C 0.28843 -0.07103 0.78794
 C2152 C 0.28094 -0.08063 0.79750
 C2153 C 0.30080 -0.07079 0.79723
 C2154 C 0.29340 -0.08057 0.80689
 C2155 C 0.30529 -0.10456 0.80523
 C2156 C 0.31025 -0.11442 0.81033
 C2157 C 0.28247 -0.05897 0.78182
 C2158 C 0.27764 -0.04897 0.77688
 H2159 H 0.29459 -0.08392 0.76899
 H2160 H 0.31744 -0.08408 0.78625
 H2161 H 0.28124 -0.10203 0.78673
 H2162 H 0.27026 -0.07952 0.80072
 H2163 H 0.30645 -0.06159 0.80024
 H2164 H 0.29310 -0.07968 0.81798
 C2165 C 0.79830 0.42104 0.78206
 C2166 C 0.80606 0.42072 0.79554
 C2167 C 0.79827 0.40789 0.79947
 C2168 C 0.79060 0.40803 0.78608
 C2169 C 0.78718 0.42952 0.78877
 C2170 C 0.77938 0.41670 0.79269
 C2171 C 0.79485 0.42938 0.80216
 C2172 C 0.78714 0.41637 0.80617
 C2173 C 0.80448 0.39590 0.80548
 C2174 C 0.80959 0.38606 0.81050
 C2175 C 0.78113 0.44165 0.78284
 C2176 C 0.77634 0.45172 0.77796
 H2177 H 0.80282 0.42310 0.77208
 H2178 H 0.81710 0.42224 0.79677
 H2179 H 0.78893 0.39911 0.77953
 H2180 H 0.76833 0.41518 0.79146
 H2181 H 0.79653 0.43830 0.80871
 H2182 H 0.78263 0.41432 0.81616
 C2183 C 0.79372 -0.08291 0.28036
 C2184 C 0.80613 -0.08286 0.28983
 C2185 C 0.79854 -0.09238 0.29940
 C2186 C 0.78622 -0.09261 0.29003
 C2187 C 0.78787 -0.07082 0.28813
 C2188 C 0.78028 -0.08034 0.29769
 C2189 C 0.80019 -0.07060 0.29749
 C2190 C 0.79269 -0.08030 0.30715
 C2191 C 0.80454 -0.10436 0.30568
 C2192 C 0.80953 -0.11419 0.31083
 C2193 C 0.78200 -0.05875 0.28191
 C2194 C 0.77724 -0.04875 0.27687
 H2195 H 0.79408 -0.08385 0.26928
 H2196 H 0.81682 -0.08403 0.28666
 H2197 H 0.78054 -0.10180 0.28703
 H2198 H 0.76959 -0.07917 0.30086
 H2199 H 0.80588 -0.06142 0.30049
 H2200 H 0.79234 -0.07936 0.31824
 C2201 C 0.27964 0.58425 0.70981
 C2202 C 0.29251 0.59140 0.71509
 C2203 C 0.29790 0.59215 0.70066
 C2204 C 0.28513 0.58519 0.69529
 C2205 C 0.28680 0.57056 0.71140
 C2206 C 0.29219 0.57131 0.69697
 C2207 C 0.29957 0.57751 0.71677
 C2208 C 0.30505 0.57845 0.70225
 C2209 C 0.30410 0.60415 0.69464
 C2210 C 0.30917 0.61401 0.68964
 C2211 C 0.28074 0.55846 0.71737
 C2212 C 0.27594 0.54842 0.72228
 H2213 H 0.26912 0.58650 0.71299
 H2214 H 0.29272 0.59979 0.72247
 H2215 H 0.27927 0.58848 0.68638
 H2216 H 0.29199 0.56292 0.68959
 H2217 H 0.30544 0.57422 0.72567
 H2218 H 0.31557 0.57619 0.69908
 C2219 C 0.30315 1.07377 0.21295
 C2220 C 0.30238 1.07734 0.19784
 C2221 C 0.29893 1.09201 0.20161
 C2222 C 0.29980 1.08862 0.21662
 C2223 C 0.28796 1.07058 0.21280
 C2224 C 0.28451 1.08524 0.21657
 C2225 C 0.28710 1.07397 0.19779
 C2226 C 0.28374 1.08881 0.20147
 C2227 C 0.30500 1.10396 0.19535
 C2228 C 0.30995 1.11380 0.19018
 C2229 C 0.28187 1.05858 0.21896
 C2230 C 0.27693 1.04864 0.22393
 H2231 H 0.31106 1.06745 0.21774
 H2232 H 0.30979 1.07422 0.19008
 H2233 H 0.30509 1.09477 0.22429
 H2234 H 0.27710 1.08835 0.22434
 H2235 H 0.28180 1.06781 0.19012
 H2236 H 0.27582 1.09512 0.19667
 C2237 C 0.80284 0.57348 0.21249
 C2238 C 0.80203 0.57713 0.19740
 C2239 C 0.79850 0.59176 0.20124
 C2240 C 0.79941 0.58830 0.21623
 C2241 C 0.78767 0.57020 0.21234
 C2242 C 0.78414 0.58483 0.21618
 C2243 C 0.78677 0.57366 0.19735
 C2244 C 0.78333 0.58847 0.20110
 C2245 C 0.80451 0.60377 0.19505
 C2246 C 0.80944 0.61366 0.18995
 C2247 C 0.78164 0.55818 0.21850
 C2248 C 0.77675 0.54823 0.22351
 H2249 H 0.81079 0.56718 0.21724
 H2250 H 0.80945 0.57409 0.18961
 H2251 H 0.80468 0.59444 0.22393
 H2252 H 0.77672 0.58786 0.22398
 H2253 H 0.78150 0.56751 0.18965
 H2254 H 0.77537 0.59476 0.19634
 C2255 C 0.79530 1.08070 0.71898
 C2256 C 0.80574 1.08050 0.70740
 C2257 C 0.79788 1.09193 0.70047
 C2258 C 0.78753 1.09232 0.71196
 C2259 C 0.78667 1.07042 0.71127
 C2260 C 0.77880 1.08184 0.70434
 C2261 C 0.79701 1.07003 0.69978
 C2262 C 0.78924 1.08164 0.69276
 C2263 C 0.80415 1.10386 0.69440
 C2264 C 0.80930 1.11365 0.68934
 C2265 C 0.78056 1.05835 0.71726
 C2266 C 0.77574 1.04833 0.72219
 H2267 H 0.79773 1.08018 0.72984
 H2268 H 0.81688 1.08007 0.70859
 H2269 H 0.78372 1.10162 0.71691
 H2270 H 0.76766 1.08226 0.70315
 H2271 H 0.80084 1.06073 0.69482
 H2272 H 0.78683 1.08216 0.68190
 C2273 C 0.71918 0.58400 0.28976
 C2274 C 0.70654 0.59162 0.28454
 C2275 C 0.70105 0.59220 0.29894
 C2276 C 0.71359 0.58477 0.30426
 C2277 C 0.71169 0.57055 0.28781
 C2278 C 0.70619 0.57113 0.30221
 C2279 C 0.69915 0.57797 0.28249
 C2280 C 0.69356 0.57874 0.29699
 C2281 C 0.69510 0.60422 0.30517
 C2282 C 0.69019 0.61410 0.31029
 C2283 C 0.71759 0.55845 0.28170
 C2284 C 0.72238 0.54842 0.27675
 H2285 H 0.72977 0.58606 0.28673
 H2286 H 0.70660 0.60019 0.27735
 H2287 H 0.71945 0.58771 0.31328
 H2288 H 0.70611 0.56257 0.30942
 H2289 H 0.69328 0.57505 0.27346
 H2290 H 0.68296 0.57670 0.30002
 C2291 C 0.69730 1.07269 0.79049
 C2292 C 0.69986 1.07791 0.80490
 C2293 C 0.70143 1.09229 0.79929
 C2294 C 0.69877 1.08725 0.78497
 C2295 C 0.71259 1.07064 0.78873
 C2296 C 0.71416 1.08501 0.78311
 C2297 C 0.71524 1.07568 0.80305
 C2298 C 0.71672 1.09025 0.79753
 C2299 C 0.69522 1.10429 0.80529
 C2300 C 0.69017 1.11415 0.81033
 C2301 C 0.71869 1.05851 0.78287
 C2302 C 0.72352 1.04844 0.77805
 H2303 H 0.68940 1.06532 0.78752
 H2304 H 0.69390 1.07511 0.81391
 H2305 H 0.69192 1.09214 0.77760
 H2306 H 0.72012 1.08780 0.77409
 H2307 H 0.72209 1.07079 0.81041
 H2308 H 0.72462 1.09762 0.80049
 C2309 C 0.22057 0.58095 0.79782
 C2310 C 0.21370 0.59254 0.78989
 C2311 C 0.20186 0.59223 0.79987
 C2312 C 0.20863 0.58082 0.80789
 C2313 C 0.21299 0.57064 0.78912
 C2314 C 0.20115 0.57033 0.79908
 C2315 C 0.20622 0.58204 0.78109
 C2316 C 0.19429 0.58191 0.79116
 C2317 C 0.19564 0.60420 0.80591
 C2318 C 0.19052 0.61403 0.81093
 C2319 C 0.21905 0.55854 0.78315
 C2320 C 0.22384 0.54849 0.77825
 H2321 H 0.23144 0.58041 0.80049
 H2322 H 0.21879 0.60182 0.78618
 H2323 H 0.20955 0.58045 0.81897
 H2324 H 0.19605 0.56106 0.80280
 H2325 H 0.20530 0.58241 0.77001
 H2326 H 0.18341 0.58244 0.78848
 C2327 C 0.19662 1.07308 0.29016
 C2328 C 0.19949 1.07797 0.30463
 C2329 C 0.20117 1.09244 0.29930
 C2330 C 0.19820 1.08774 0.28492
 C2331 C 0.21185 1.07087 0.28809
 C2332 C 0.21353 1.08534 0.28275
 C2333 C 0.21481 1.07557 0.30247
 C2334 C 0.21640 1.09023 0.29723
 C2335 C 0.19518 1.10443 0.30556
 C2336 C 0.19023 1.11429 0.31069
 C2337 C 0.21773 1.05878 0.28192
 C2338 C 0.22249 1.04876 0.27693
 H2339 H 0.18856 1.06590 0.28717
 H2340 H 0.19366 1.07506 0.31370
 H2341 H 0.19131 1.09288 0.27778
 H2342 H 0.21936 1.08825 0.27369
 H2343 H 0.22171 1.07044 0.30961
 H2344 H 0.22445 1.09743 0.30022
 C2345 C 0.70225 0.42987 0.70063
 C2346 C 0.70993 0.41865 0.69293
 C2347 C 0.70201 0.40795 0.70087
 C2348 C 0.69424 0.41899 0.70848
 C2349 C 0.71322 0.42952 0.71152
 C2350 C 0.70530 0.41883 0.71947
 C2351 C 0.72099 0.41848 0.70391
 C2352 C 0.71298 0.40759 0.71176
 C2353 C 0.69578 0.39597 0.69487
 C2354 C 0.69069 0.38613 0.68987
 C2355 C 0.71932 0.44162 0.71742
 C2356 C 0.72415 0.45167 0.72227
 H2357 H 0.69791 0.43917 0.69612
 H2358 H 0.71175 0.41844 0.68195
 H2359 H 0.68317 0.41908 0.71030
 H2360 H 0.70347 0.41903 0.73045
 H2361 H 0.73206 0.41840 0.70209
 H2362 H 0.71732 0.39829 0.71627
 C2363 C 0.70101 -0.07012 0.20180
 C2364 C 0.70886 -0.08112 0.19395
 C2365 C 0.70107 -0.09205 0.20170
 C2366 C 0.69313 -0.08123 0.20946
 C2367 C 0.71195 -0.07049 0.21271
 C2368 C 0.70416 -0.08141 0.22047
 C2369 C 0.71989 -0.08131 0.20496
 C2370 C 0.71201 -0.09243 0.21262
 C2371 C 0.69502 -0.10402 0.19548
 C2372 C 0.69007 -0.11385 0.19030
 C2373 C 0.71800 -0.05844 0.21876
 C2374 C 0.72292 -0.04845 0.22366
 H2375 H 0.69655 -0.06082 0.19741
 H2376 H 0.71072 -0.08113 0.18297
 H2377 H 0.68206 -0.08131 0.21125
 H2378 H 0.70230 -0.08139 0.23145
 H2379 H 0.73097 -0.08122 0.20317
 H2380 H 0.71646 -0.10173 0.21701
 C2381 C 0.19747 0.42896 0.20740
 C2382 C 0.20274 0.42191 0.19454
 C2383 C 0.20111 0.40816 0.20152
 C2384 C 0.19575 0.41502 0.21428
 C2385 C 0.21203 0.42962 0.21269
 C2386 C 0.21041 0.41587 0.21967
 C2387 C 0.21739 0.42275 0.19993
 C2388 C 0.21567 0.40881 0.20681
 C2389 C 0.19507 0.39621 0.19528
 C2390 C 0.19013 0.38637 0.19013
 C2391 C 0.21808 0.44162 0.21885
 C2392 C 0.22298 0.45156 0.22384
 H2393 H 0.19005 0.43738 0.20771
 H2394 H 0.19951 0.42428 0.18414
 H2395 H 0.18678 0.41172 0.22011
 H2396 H 0.21363 0.41351 0.23007
 H2397 H 0.22635 0.42606 0.19410
 H2398 H 0.22310 0.40040 0.20650
 C2399 C 0.19719 -0.07325 0.71119
 C2400 C 0.19941 -0.07764 0.69644
 C2401 C 0.20161 -0.09224 0.70123
 C2402 C 0.19931 -0.08803 0.71588
 C2403 C 0.21246 -0.07083 0.71254
 C2404 C 0.21467 -0.08543 0.71733
 C2405 C 0.21477 -0.07503 0.69789
 C2406 C 0.21688 -0.08982 0.70257
 C2407 C 0.19556 -0.10415 0.69492
 C2408 C 0.19056 -0.11395 0.68973
 C2409 C 0.21845 -0.05884 0.71879
 C2410 C 0.22331 -0.04891 0.72384
 H2411 H 0.18916 -0.06631 0.71481
 H2412 H 0.19306 -0.07456 0.68779
 H2413 H 0.19287 -0.09351 0.72320
 H2414 H 0.22101 -0.08850 0.72599
 H2415 H 0.22119 -0.06955 0.69056
 H2416 H 0.22492 -0.09676 0.69895
 C2417 C 0.28113 0.29621 0.42041
 C2418 C 0.29334 0.30600 0.42027
 C2419 C 0.29935 0.29805 0.40845
 C2420 C 0.28723 0.28835 0.40841
 C2421 C 0.28891 0.28692 0.43005
 C2422 C 0.29492 0.27896 0.41823
 C2423 C 0.30103 0.29661 0.43008
 C2424 C 0.30713 0.28876 0.41808
 C2425 C 0.30521 0.30428 0.39646
 C2426 C 0.31008 0.30939 0.38662
 C2427 C 0.28308 0.28085 0.44213
 C2428 C 0.27825 0.27604 0.45214
 H2429 H 0.27037 0.29921 0.42151
 H2430 H 0.29276 0.31719 0.42097
 H2431 H 0.28161 0.28504 0.39936
 H2432 H 0.29550 0.26778 0.41752
 H2433 H 0.30665 0.29994 0.43913
 H2434 H 0.31788 0.28577 0.41698
 C2435 C 0.28594 0.80149 -0.07511
 C2436 C 0.30122 0.80376 -0.07763
 C2437 C 0.29944 0.79833 -0.09195
 C2438 C 0.28426 0.79616 -0.08961
 C2439 C 0.28906 0.78703 -0.07042
 C2440 C 0.28728 0.78159 -0.08474
 C2441 C 0.30425 0.78920 -0.07276
 C2442 C 0.30256 0.78386 -0.08726
 C2443 C 0.30527 0.80463 -0.10392
 C2444 C 0.31012 0.80978 -0.11374
 C2445 C 0.28324 0.78090 -0.05836
 C2446 C 0.27841 0.77609 -0.04835
 H2447 H 0.27904 0.80868 -0.06998
 H2448 H 0.30700 0.81295 -0.07485
 H2449 H 0.27610 0.79910 -0.09667
 H2450 H 0.28150 0.77241 -0.08753
 H2451 H 0.31241 0.78626 -0.06570
 H2452 H 0.30947 0.77669 -0.09241
 C2453 C 0.78425 0.30332 -0.07572
 C2454 C 0.79964 0.30516 -0.07789
 C2455 C 0.79813 0.29943 -0.09212
 C2456 C 0.78283 0.29768 -0.09015
 C2457 C 0.78688 0.28890 -0.07063
 C2458 C 0.78537 0.28317 -0.08487
 C2459 C 0.80218 0.29065 -0.07262
 C2460 C 0.80077 0.28501 -0.08704
 C2461 C 0.80441 0.30536 -0.10405
 C2462 C 0.80954 0.31032 -0.11384
 C2463 C 0.78078 0.28306 -0.05858
 C2464 C 0.77598 0.27825 -0.04855
 H2465 H 0.77739 0.31079 -0.07095
 H2466 H 0.80559 0.31426 -0.07515
 H2467 H 0.77496 0.30065 -0.09750
 H2468 H 0.77943 0.27407 -0.08761
 H2469 H 0.81007 0.28769 -0.06527
 H2470 H 0.80763 0.27755 -0.09182
 C2471 C 0.80247 0.78562 0.42532
 C2472 C 0.79756 0.78332 0.41075
 C2473 C 0.79868 0.79859 0.40819
 C2474 C 0.80367 0.80099 0.42258
 C2475 C 0.78773 0.78776 0.42969
 C2476 C 0.78885 0.80303 0.42714
 C2477 C 0.78273 0.78536 0.41531
 C2478 C 0.78394 0.80073 0.41257
 C2479 C 0.80475 0.80466 0.39622
 C2480 C 0.80972 0.80968 0.38638
 C2481 C 0.78166 0.78179 0.44171
 C2482 C 0.77670 0.77698 0.45166
 H2483 H 0.81002 0.77934 0.43070
 H2484 H 0.80122 0.77528 0.40388
 H2485 H 0.81235 0.80748 0.42544
 H2486 H 0.78519 0.81108 0.43400
 H2487 H 0.77405 0.77887 0.41246
 H2488 H 0.77639 0.80702 0.40720
 C2489 C 0.69814 0.29173 0.57168
 C2490 C 0.69859 0.28544 0.58590
 C2491 C 0.70215 0.29939 0.59165
 C2492 C 0.70161 0.30577 0.57761
 C2493 C 0.71332 0.28882 0.57013
 C2494 C 0.71688 0.30278 0.57588
 C2495 C 0.71386 0.28244 0.58416
 C2496 C 0.71732 0.29649 0.59010
 C2497 C 0.69589 0.30531 0.60360
 C2498 C 0.69076 0.31022 0.61341
 C2499 C 0.71938 0.28292 0.55808
 C2500 C 0.72415 0.27804 0.54807
 H2501 H 0.69032 0.28970 0.56396
 H2502 H 0.69099 0.27838 0.59014
 H2503 H 0.69650 0.31542 0.57505
 H2504 H 0.72447 0.30984 0.57163
 H2505 H 0.71897 0.27279 0.58673
 H2506 H 0.72514 0.29852 0.59782
 C2507 C 0.71244 0.78176 1.08405
 C2508 C 0.71692 0.79508 1.09090
 C2509 C 0.70204 0.79941 1.09184
 C2510 C 0.69746 0.78618 1.08519
 C2511 C 0.71330 0.78883 1.07037
 C2512 C 0.69841 0.79316 1.07132
 C2513 C 0.71788 0.80206 1.07702
 C2514 C 0.70290 0.80648 1.07815
 C2515 C 0.69575 0.80535 1.10378
 C2516 C 0.69060 0.81028 1.11358
 C2517 C 0.71941 0.78296 1.05832
 C2518 C 0.72421 0.77811 1.04831
 H2519 H 0.71644 0.77153 1.08635
 H2520 H 0.72446 0.79594 1.09909
 H2521 H 0.68899 0.77972 1.08867
 H2522 H 0.69087 0.79231 1.06313
 H2523 H 0.72634 0.80853 1.07353
 H2524 H 0.69889 0.81671 1.07585
 C2525 C 0.20873 0.30370 1.07150
 C2526 C 0.19542 0.29878 1.07804
 C2527 C 0.20225 0.29948 1.09185
 C2528 C 0.21547 0.30449 1.08549
 C2529 C 0.21340 0.28893 1.07031
 C2530 C 0.22024 0.28962 1.08411
 C2531 C 0.20017 0.28392 1.07668
 C2532 C 0.20691 0.28471 1.09067
 C2533 C 0.19600 0.30540 1.10381
 C2534 C 0.19086 0.31032 1.11362
 C2535 C 0.21944 0.28304 1.05823
 C2536 C 0.22419 0.27818 1.04820
 H2537 H 0.20955 0.31145 1.06348
 H2538 H 0.18514 0.30260 1.07568
 H2539 H 0.22169 0.31302 1.08925
 H2540 H 0.23051 0.28580 1.08647
 H2541 H 0.19395 0.27539 1.07292
 H2542 H 0.20609 0.27696 1.09868
 C2543 C 0.20750 0.80256 0.57100
 C2544 C 0.19442 0.79754 0.57792
 C2545 C 0.20149 0.79876 0.59157
 C2546 C 0.21448 0.80387 0.58484
 C2547 C 0.21246 0.78787 0.57012
 C2548 C 0.21953 0.78908 0.58377
 C2549 C 0.19946 0.78275 0.57685
 C2550 C 0.20644 0.78406 0.59069
 C2551 C 0.19539 0.80484 0.60352
 C2552 C 0.19040 0.80986 0.61335
 C2553 C 0.21853 0.78188 0.55811
 C2554 C 0.22346 0.77704 0.54816
 H2555 H 0.20802 0.81010 0.56277
 H2556 H 0.18402 0.80109 0.57564
 H2557 H 0.22059 0.81262 0.58825
 H2558 H 0.22992 0.78553 0.58603
 H2559 H 0.19336 0.77400 0.57342
 H2560 H 0.20593 0.77652 0.59891
 C2561 C 0.28240 0.71432 0.58437
 C2562 C 0.28376 0.69894 0.58701
 C2563 C 0.29845 0.70117 0.59143
 C2564 C 0.29720 0.71646 0.58898
 C2565 C 0.28748 0.71207 0.56999
 C2566 C 0.30218 0.71430 0.57440
 C2567 C 0.28874 0.69679 0.57244
 C2568 C 0.30353 0.69893 0.57704
 C2569 C 0.30457 0.69507 0.60335
 C2570 C 0.30960 0.69004 0.61315
 C2571 C 0.28142 0.71807 0.55798
 C2572 C 0.27650 0.72291 0.54804
 H2573 H 0.27365 0.72072 0.58726
 H2574 H 0.27625 0.69255 0.59233
 H2575 H 0.30075 0.72447 0.59592
 H2576 H 0.30969 0.72069 0.56909
 H2577 H 0.28519 0.68877 0.56550
 H2578 H 0.31228 0.69253 0.57415
 C2579 C 0.28173 0.21352 1.08466
 C2580 C 0.28324 0.19818 1.08749
 C2581 C 0.29795 0.20061 1.09180
 C2582 C 0.29654 0.21584 1.08915
 C2583 C 0.28674 0.21111 1.07027
 C2584 C 0.30145 0.21353 1.07458
 C2585 C 0.28816 0.19588 1.07292
 C2586 C 0.30295 0.19821 1.07741
 C2587 C 0.30420 0.19470 1.10376
 C2588 C 0.30933 0.18980 1.11358
 C2589 C 0.28065 0.21697 1.05821
 C2590 C 0.27584 0.22180 1.04820
 H2591 H 0.27294 0.21987 1.08751
 H2592 H 0.27583 0.19180 1.09294
 H2593 H 0.30006 0.22399 1.09595
 H2594 H 0.30887 0.21991 1.06913
 H2595 H 0.28464 0.18773 1.06612
 H2596 H 0.31175 0.19186 1.07455
 C2597 C 0.78190 0.71377 1.08479
 C2598 C 0.78342 0.69843 1.08758
 C2599 C 0.79814 0.70084 1.09184
 C2600 C 0.79672 0.71609 1.08925
 C2601 C 0.78687 0.71141 1.07039
 C2602 C 0.80159 0.71382 1.07466
 C2603 C 0.78829 0.69617 1.07299
 C2604 C 0.80310 0.69849 1.07743
 C2605 C 0.80444 0.69486 1.10374
 C2606 C 0.80958 0.68986 1.11351
 C2607 C 0.78076 0.71725 1.05833
 C2608 C 0.77596 0.72206 1.04831
 H2609 H 0.77312 0.72012 1.08768
 H2610 H 0.77601 0.69204 1.09303
 H2611 H 0.80026 0.72422 1.09606
 H2612 H 0.80898 0.72022 1.06920
 H2613 H 0.78475 0.68804 1.06617
 H2614 H 0.81189 0.69215 1.07453
 C2615 C 0.77988 0.20978 0.58373
 C2616 C 0.78552 0.19520 0.58483
 C2617 C 0.79826 0.20083 0.59160
 C2618 C 0.79273 0.21532 0.59070
 C2619 C 0.78696 0.21127 0.57010
 C2620 C 0.79971 0.21690 0.57688
 C2621 C 0.79250 0.19679 0.57101
 C2622 C 0.80534 0.20233 0.57797
 C2623 C 0.80456 0.19493 0.60353
 C2624 C 0.80969 0.18999 0.61331
 C2625 C 0.78083 0.21706 0.55805
 C2626 C 0.77600 0.22184 0.54803
 H2627 H 0.76934 0.21291 0.58597
 H2628 H 0.77976 0.18621 0.58824
 H2629 H 0.79290 0.22287 0.59892
 H2630 H 0.80547 0.22589 0.57347
 H2631 H 0.79233 0.18922 0.56279
 H2632 H 0.81588 0.19921 0.57573
 C2633 C 0.70098 0.71881 0.42163
 C2634 C 0.70867 0.71518 0.40857
 C2635 C 0.70140 0.70146 0.40832
 C2636 C 0.69362 0.70500 0.42119
 C2637 C 0.71238 0.71225 0.42981
 C2638 C 0.70512 0.69853 0.42955
 C2639 C 0.72017 0.70872 0.41694
 C2640 C 0.71281 0.69491 0.41650
 C2641 C 0.69526 0.69541 0.39639
 C2642 C 0.69020 0.69040 0.38659
 C2643 C 0.71845 0.71818 0.44184
 C2644 C 0.72337 0.72297 0.45180
 H2645 H 0.69619 0.72871 0.42386
 H2646 H 0.71006 0.72196 0.39981
 H2647 H 0.68264 0.70341 0.42280
 H2648 H 0.70371 0.69173 0.43830
 H2649 H 0.73115 0.71031 0.41533
 H2650 H 0.71760 0.68501 0.41426
 C2651 C 0.70427 0.21889 -0.08032
 C2652 C 0.71209 0.21252 -0.09222
 C2653 C 0.70226 0.20050 -0.09200
 C2654 C 0.69435 0.20678 -0.08029
 C2655 C 0.71345 0.21115 -0.07055
 C2656 C 0.70362 0.19913 -0.07034
 C2657 C 0.72137 0.20487 -0.08226
 C2658 C 0.71144 0.19276 -0.08223
 C2659 C 0.69600 0.19456 -0.10392
 C2660 C 0.69086 0.18963 -0.11371
 C2661 C 0.71952 0.21708 -0.05853
 C2662 C 0.72429 0.22198 -0.04854
 H2663 H 0.70140 0.22970 -0.07940
 H2664 H 0.71549 0.21797 -0.10134
 H2665 H 0.68318 0.20750 -0.07961
 H2666 H 0.70021 0.19368 -0.06122
 H2667 H 0.73254 0.20415 -0.08293
 H2668 H 0.71431 0.18195 -0.08315
 C2669 C 0.21151 0.71988 -0.08425
 C2670 C 0.21579 0.70607 -0.09026
 C2671 C 0.20081 0.70230 -0.09174
 C2672 C 0.19644 0.71600 -0.08592
 C2673 C 0.21139 0.71343 -0.07024
 C2674 C 0.19641 0.70965 -0.07172
 C2675 C 0.21576 0.69973 -0.07606
 C2676 C 0.20069 0.69586 -0.07772
 C2677 C 0.19487 0.69606 -0.10367
 C2678 C 0.18995 0.69092 -0.11346
 C2679 C 0.21728 0.71948 -0.05819
 C2680 C 0.22215 0.72427 -0.04820
 H2681 H 0.21602 0.72982 -0.08680
 H2682 H 0.22369 0.70452 -0.09802
 H2683 H 0.18842 0.72262 -0.09011
 H2684 H 0.18850 0.71119 -0.06396
 H2685 H 0.22377 0.69310 -0.07187
 H2686 H 0.19618 0.68591 -0.07517
 C2687 C 0.21791 0.20201 0.42195
 C2688 C 0.20422 0.19446 0.42144
 C2689 C 0.20065 0.20221 0.40857
 C2690 C 0.21425 0.20967 0.40890
 C2691 C 0.21115 0.21331 0.43013
 C2692 C 0.20759 0.22108 0.41727
 C2693 C 0.19755 0.20585 0.42980
 C2694 C 0.19389 0.21352 0.41675
 C2695 C 0.19478 0.19600 0.39659
 C2696 C 0.18992 0.19090 0.38675
 C2697 C 0.21703 0.21935 0.44219
 C2698 C 0.22191 0.22412 0.45219
 H2699 H 0.22785 0.19734 0.42422
 H2700 H 0.20276 0.18344 0.42301
 H2701 H 0.22106 0.21116 0.40017
 H2702 H 0.20903 0.23209 0.41568
 H2703 H 0.19073 0.20435 0.43852
 H2704 H 0.18394 0.21816 0.41446
 C2705 C 0.29127 0.42722 0.69877
 C2706 C 0.30577 0.42193 0.70137
 C2707 C 0.30009 0.40754 0.70268
 C2708 C 0.28568 0.41265 0.69999
 C2709 C 0.28935 0.42906 0.71395
 C2710 C 0.28367 0.41467 0.71527
 C2711 C 0.30376 0.42395 0.71665
 C2712 C 0.29817 0.40936 0.71787
 C2713 C 0.30603 0.39557 0.69633
 C2714 C 0.31089 0.38574 0.69106
 C2715 C 0.28333 0.44112 0.72002
 C2716 C 0.27834 0.45115 0.72478
 H2717 H 0.28837 0.43470 0.69099
 H2718 H 0.31491 0.42479 0.69558
 H2719 H 0.27832 0.40789 0.69307
 H2720 H 0.27452 0.41182 0.72105
 H2721 H 0.31112 0.42872 0.72357
 H2722 H 0.30108 0.40188 0.72564
 C2723 C 0.28686 0.92589 0.19786
 C2724 C 0.30218 0.92270 0.19755
 C2725 C 0.29905 0.90805 0.20162
 C2726 C 0.28381 0.91106 0.20184
 C2727 C 0.28808 0.92951 0.21279
 C2728 C 0.28495 0.91487 0.21687
 C2729 C 0.30332 0.92651 0.21257
 C2730 C 0.30028 0.91167 0.21655
 C2731 C 0.30514 0.89612 0.19536
 C2732 C 0.31013 0.88630 0.19018
 C2733 C 0.28201 0.94152 0.21894
 C2734 C 0.27708 0.95147 0.22391
 H2735 H 0.28127 0.93187 0.19025
 H2736 H 0.30934 0.92580 0.18955
 H2737 H 0.27587 0.90458 0.19735
 H2738 H 0.27780 0.91178 0.22488
 H2739 H 0.31127 0.93299 0.21706
 H2740 H 0.30587 0.90570 0.22416
 C2741 C 0.79585 0.41831 0.21987
 C2742 C 0.78797 0.40729 0.21210
 C2743 C 0.79871 0.40781 0.20098
 C2744 C 0.80669 0.41865 0.20866
 C2745 C 0.78783 0.42922 0.21233
 C2746 C 0.79857 0.42974 0.20121
 C2747 C 0.77985 0.41839 0.20465
 C2748 C 0.79069 0.41872 0.19344
 C2749 C 0.80478 0.39588 0.19468
 C2750 C 0.80978 0.38605 0.18953
 C2751 C 0.78181 0.44120 0.21857
 C2752 C 0.77693 0.45114 0.22363
 H2753 H 0.79791 0.41827 0.23081
 H2754 H 0.78368 0.39792 0.21651
 H2755 H 0.81779 0.41863 0.21022
 H2756 H 0.80286 0.43911 0.19680
 H2757 H 0.76875 0.41840 0.20308
 H2758 H 0.78863 0.41877 0.18250
 C2759 C 0.79737 0.91842 0.72074
 C2760 C 0.78930 0.90719 0.71346
 C2761 C 0.79957 0.90765 0.70190
 C2762 C 0.80773 0.91869 0.70909
 C2763 C 0.78893 0.92912 0.71336
 C2764 C 0.79919 0.92958 0.70181
 C2765 C 0.78076 0.91808 0.70618
 C2766 C 0.79112 0.91836 0.69453
 C2767 C 0.80549 0.89572 0.69548
 C2768 C 0.81037 0.88591 0.69020
 C2769 C 0.78296 0.94115 0.71955
 C2770 C 0.77802 0.95116 0.72440
 H2771 H 0.79988 0.91857 0.73159
 H2772 H 0.78529 0.89785 0.71817
 H2773 H 0.81889 0.91881 0.71019
 H2774 H 0.80320 0.93892 0.69709
 H2775 H 0.76960 0.91796 0.70507
 H2776 H 0.78861 0.91821 0.68369
 C2777 C 0.71797 0.57893 0.70147
 C2778 C 0.70418 0.57937 0.69415
 C2779 C 0.70082 0.59258 0.70154
 C2780 C 0.71452 0.59232 0.70877
 C2781 C 0.71131 0.57105 0.71299
 C2782 C 0.70795 0.58425 0.72038
 C2783 C 0.69761 0.57131 0.70576
 C2784 C 0.69415 0.58470 0.71306
 C2785 C 0.69493 0.60454 0.69515
 C2786 C 0.69003 0.61437 0.68992
 C2787 C 0.71717 0.55897 0.71919
 C2788 C 0.72204 0.54894 0.72405
 H2789 H 0.72783 0.57641 0.69678
 H2790 H 0.70257 0.57750 0.68330
 H2791 H 0.72141 0.60109 0.70992
 H2792 H 0.70955 0.58612 0.73124
 H2793 H 0.69071 0.56255 0.70460
 H2794 H 0.68428 0.58722 0.71773
 C2795 C 0.71864 0.07863 0.20078
 C2796 C 0.70478 0.07893 0.19358
 C2797 C 0.70131 0.09207 0.20104
 C2798 C 0.71507 0.09196 0.20815
 C2799 C 0.71217 0.07063 0.21233
 C2800 C 0.70870 0.08377 0.21979
 C2801 C 0.69841 0.07075 0.20521
 C2802 C 0.69484 0.08407 0.21258
 C2803 C 0.69527 0.10403 0.19474
 C2804 C 0.69031 0.11387 0.18958
 C2805 C 0.71821 0.05864 0.21854
 C2806 C 0.72311 0.04870 0.22356
 H2807 H 0.72849 0.07627 0.19600
 H2808 H 0.70309 0.07707 0.18273
 H2809 H 0.72185 0.10081 0.20929
 H2810 H 0.71037 0.08562 0.23064
 H2811 H 0.69162 0.06189 0.20408
 H2812 H 0.68498 0.08643 0.21736
 C2813 C 0.21808 0.57872 0.20124
 C2814 C 0.20420 0.57896 0.19407
 C2815 C 0.20068 0.59207 0.20156
 C2816 C 0.21447 0.59202 0.20863
 C2817 C 0.21169 0.57067 0.21279
 C2818 C 0.20817 0.58378 0.22028
 C2819 C 0.19790 0.57073 0.20572
 C2820 C 0.19429 0.58402 0.21311
 C2821 C 0.19456 0.60398 0.19527
 C2822 C 0.18956 0.61376 0.19006
 C2823 C 0.21778 0.55869 0.21896
 C2824 C 0.22271 0.54874 0.22394
 H2825 H 0.22793 0.57641 0.19642
 H2826 H 0.20250 0.57710 0.18323
 H2827 H 0.22121 0.60091 0.20975
 H2828 H 0.20988 0.58563 0.23112
 H2829 H 0.19116 0.56184 0.20459
 H2830 H 0.18443 0.58633 0.21793
 C2831 C 0.21829 0.07819 0.70147
 C2832 C 0.20440 0.07843 0.69434
 C2833 C 0.20088 0.09152 0.70187
 C2834 C 0.21468 0.09146 0.70891
 C2835 C 0.21194 0.07010 0.71301
 C2836 C 0.20842 0.08318 0.72055
 C2837 C 0.19814 0.07016 0.70597
 C2838 C 0.19452 0.08343 0.71341
 C2839 C 0.19476 0.10345 0.69564
 C2840 C 0.18978 0.11329 0.69049
 C2841 C 0.21807 0.05812 0.71915
 C2842 C 0.22304 0.04819 0.72412
 H2843 H 0.22814 0.07591 0.69663
 H2844 H 0.20267 0.07660 0.68349
 H2845 H 0.22141 0.10035 0.71005
 H2846 H 0.21014 0.08500 0.73140
 H2847 H 0.19140 0.06126 0.70484
 H2848 H 0.18467 0.08570 0.71825
 C2849 C 0.29225 0.58360 0.28008
 C2850 C 0.28555 0.59234 0.29113
 C2851 C 0.29896 0.59236 0.29887
 C2852 C 0.30576 0.58380 0.28792
 C2853 C 0.28811 0.57082 0.28781
 C2854 C 0.30152 0.57084 0.29555
 C2855 C 0.28131 0.57938 0.29876
 C2856 C 0.29482 0.57958 0.30660
 C2857 C 0.30501 0.60434 0.30504
 C2858 C 0.30997 0.61421 0.31012
 C2859 C 0.28212 0.55877 0.28170
 C2860 C 0.27727 0.54879 0.27675
 H2861 H 0.29113 0.58512 0.26911
 H2862 H 0.27905 0.60133 0.28939
 H2863 H 0.31589 0.58575 0.28354
 H2864 H 0.30802 0.56186 0.29730
 H2865 H 0.27118 0.57743 0.30315
 H2866 H 0.29595 0.57805 0.31757
 C2867 C 0.28752 0.08484 0.78202
 C2868 C 0.28408 0.09028 0.79618
 C2869 C 0.29924 0.09208 0.79893
 C2870 C 0.30278 0.08683 0.78486
 C2871 C 0.28848 0.07050 0.78786
 C2872 C 0.30364 0.07230 0.79060
 C2873 C 0.28494 0.07575 0.80193
 C2874 C 0.30020 0.07773 0.80476
 C2875 C 0.30526 0.10407 0.80511
 C2876 C 0.31023 0.11393 0.81020
 C2877 C 0.28254 0.05842 0.78176
 C2878 C 0.27773 0.04840 0.77682
 H2879 H 0.28225 0.08763 0.77260
 H2880 H 0.27610 0.09781 0.79855
 H2881 H 0.31019 0.09152 0.77791
 H2882 H 0.31163 0.06478 0.78824
 H2883 H 0.27753 0.07106 0.80888
 H2884 H 0.30548 0.07495 0.81418
 C2885 C 0.79301 0.57210 0.80168
 C2886 C 0.80665 0.57863 0.79770
 C2887 C 0.79987 0.59260 0.79811
 C2888 C 0.78631 0.58625 0.80218
 C2889 C 0.78931 0.57107 0.78675
 C2890 C 0.78252 0.58504 0.78716
 C2891 C 0.80287 0.57742 0.78268
 C2892 C 0.79617 0.59158 0.78318
 C2893 C 0.80578 0.60455 0.80448
 C2894 C 0.81067 0.61435 0.80974
 C2895 C 0.78340 0.55900 0.78061
 C2896 C 0.77849 0.54898 0.77579
 H2897 H 0.79165 0.56395 0.80921
 H2898 H 0.81664 0.57613 0.80213
 H2899 H 0.77958 0.59000 0.81026
 H2900 H 0.77253 0.58754 0.78274
 H2901 H 0.80961 0.57366 0.77460
 H2902 H 0.79754 0.59973 0.77566
 C2903 C 0.78727 0.08513 0.28172
 C2904 C 0.78390 0.09055 0.29591
 C2905 C 0.79908 0.09222 0.29863
 C2906 C 0.80255 0.08699 0.28453
 C2907 C 0.78813 0.07076 0.28752
 C2908 C 0.80331 0.07244 0.29024
 C2909 C 0.78466 0.07600 0.30161
 C2910 C 0.79994 0.07786 0.30442
 C2911 C 0.80519 0.10413 0.30487
 C2912 C 0.81022 0.11391 0.31003
 C2913 C 0.78212 0.05871 0.28143
 C2914 C 0.77729 0.04870 0.27651
 H2915 H 0.78200 0.08798 0.27232
 H2916 H 0.77598 0.09813 0.29832
 H2917 H 0.80998 0.09165 0.27759
 H2918 H 0.81123 0.06487 0.28783
 H2919 H 0.77723 0.07134 0.30856
 H2920 H 0.80521 0.07499 0.31382
 C2921 C 0.71391 0.42461 0.30224
 C2922 C 0.69855 0.42184 0.30340
 C2923 C 0.70101 0.40728 0.29863
 C2924 C 0.71628 0.40986 0.29757
 C2925 C 0.71185 0.42882 0.28756
 C2926 C 0.71432 0.41427 0.28278
 C2927 C 0.69658 0.42624 0.28862
 C2928 C 0.69895 0.41149 0.28394
 C2929 C 0.69495 0.39532 0.30485
 C2930 C 0.68996 0.38549 0.30998
 C2931 C 0.71783 0.44090 0.28148
 C2932 C 0.72264 0.45093 0.27657
 H2933 H 0.72013 0.43014 0.30970
 H2934 H 0.69200 0.42482 0.31194
 H2935 H 0.72430 0.40299 0.30132
 H2936 H 0.72087 0.41129 0.27424
 H2937 H 0.68855 0.43310 0.28487
 H2938 H 0.69273 0.40595 0.27650
 C2939 C 0.71319 0.92492 0.80184
 C2940 C 0.69789 0.92196 0.80321
 C2941 C 0.70050 0.90738 0.79855
 C2942 C 0.71572 0.91017 0.79728
 C2943 C 0.71090 0.92897 0.78714
 C2944 C 0.71352 0.91440 0.78248
 C2945 C 0.69569 0.92618 0.78842
 C2946 C 0.69821 0.91142 0.78385
 C2947 C 0.69464 0.89541 0.80492
 C2948 C 0.68974 0.88559 0.81015
 C2949 C 0.71671 0.94107 0.78097
 C2950 C 0.72153 0.95113 0.77614
 H2951 H 0.71942 0.93062 0.80917
 H2952 H 0.69141 0.92493 0.81181
 H2953 H 0.72388 0.90345 0.80101
 H2954 H 0.72001 0.91143 0.77389
 H2955 H 0.68752 0.93290 0.78469
 H2956 H 0.69198 0.90572 0.77654
 C2957 C 0.21281 0.42498 0.80156
 C2958 C 0.19748 0.42211 0.80283
 C2959 C 0.20002 0.40753 0.79813
 C2960 C 0.21526 0.41022 0.79696
 C2961 C 0.21064 0.42909 0.78687
 C2962 C 0.21318 0.41452 0.78217
 C2963 C 0.19540 0.42641 0.78804
 C2964 C 0.19784 0.41164 0.78344
 C2965 C 0.19408 0.39556 0.80446
 C2966 C 0.18919 0.38573 0.80968
 C2967 C 0.21657 0.44118 0.78077
 C2968 C 0.22148 0.45122 0.77599
 H2969 H 0.21903 0.43060 0.80895
 H2970 H 0.19097 0.42510 0.81140
 H2971 H 0.22336 0.40344 0.80071
 H2972 H 0.21970 0.41154 0.77360
 H2973 H 0.18730 0.43319 0.78429
 H2974 H 0.19162 0.40602 0.77606
 C2975 C 0.21369 0.92503 0.30237
 C2976 C 0.19832 0.92227 0.30349
 C2977 C 0.20078 0.90772 0.29870
 C2978 C 0.21605 0.91029 0.29767
 C2979 C 0.21167 0.92928 0.28769
 C2980 C 0.21412 0.91472 0.28290
 C2981 C 0.19639 0.92670 0.28872
 C2982 C 0.19876 0.91196 0.28402
 C2983 C 0.19470 0.89574 0.30486
 C2984 C 0.18970 0.88590 0.30997
 C2985 C 0.21766 0.94134 0.28162
 C2986 C 0.22250 0.95135 0.27669
 H2987 H 0.21990 0.93054 0.30986
 H2988 H 0.19175 0.92524 0.31203
 H2989 H 0.22406 0.90340 0.30143
 H2990 H 0.22069 0.91175 0.27436
 H2991 H 0.18838 0.93358 0.28497
 H2992 H 0.19254 0.90645 0.27655
 C2993 C 0.42624 0.28605 0.69733
 C2994 C 0.41142 0.28304 0.70138
 C2995 C 0.40840 0.29827 0.70101
 C2996 C 0.42303 0.30138 0.69687
 C2997 C 0.42988 0.28745 0.71224
 C2998 C 0.42686 0.30268 0.71187
 C2999 C 0.41526 0.28434 0.71638
 C3000 C 0.41205 0.29967 0.71592
 C3001 C 0.39643 0.30431 0.69477
 C3002 C 0.38657 0.30929 0.68969
 C3003 C 0.44191 0.28150 0.71844
 C3004 C 0.45188 0.27670 0.72347
 H3005 H 0.43221 0.28038 0.68976
 H3006 H 0.40494 0.27503 0.69698
 H3007 H 0.42611 0.30845 0.68878
 H3008 H 0.43334 0.31069 0.71626
 H3009 H 0.41219 0.27727 0.72447
 H3010 H 0.40609 0.30534 0.72349
 C3011 C 0.42579 0.78690 0.19747
 C3012 C 0.41100 0.78381 0.20154
 C3013 C 0.40791 0.79903 0.20115
 C3014 C 0.42251 0.80220 0.19699
 C3015 C 0.42945 0.78833 0.21237
 C3016 C 0.42636 0.80355 0.21199
 C3017 C 0.41484 0.78516 0.21654
 C3018 C 0.41156 0.80047 0.21605
 C3019 C 0.39593 0.80502 0.19489
 C3020 C 0.38610 0.80999 0.18975
 C3021 C 0.44150 0.78240 0.21855
 C3022 C 0.45148 0.77757 0.22354
 H3023 H 0.43178 0.78125 0.18990
 H3024 H 0.40455 0.77577 0.19717
 H3025 H 0.42554 0.80928 0.18889
 H3026 H 0.43280 0.81160 0.21636
 H3027 H 0.41182 0.77809 0.22464
 H3028 H 0.40558 0.80613 0.22362
 C3029 C 0.91911 0.29700 0.21996
 C3030 C 0.91927 0.30736 0.20830
 C3031 C 0.90807 0.29926 0.20130
 C3032 C 0.90772 0.28900 0.21286
 C3033 C 0.92963 0.28847 0.21240
 C3034 C 0.91843 0.28037 0.20540
 C3035 C 0.92998 0.29874 0.20085
 C3036 C 0.91859 0.29074 0.19376
 C3037 C 0.89608 0.30527 0.19508
 C3038 C 0.88622 0.31019 0.18994
 C3039 C 0.94170 0.28250 0.21851
 C3040 C 0.95169 0.27765 0.22346
 H3041 H 0.91945 0.29951 0.23080
 H3042 H 0.91948 0.31853 0.20942
 H3043 H 0.89843 0.28506 0.21773
 H3044 H 0.91822 0.26921 0.20428
 H3045 H 0.93926 0.30269 0.19598
 H3046 H 0.91825 0.28823 0.18291
 C3047 C 0.91960 0.79740 0.71947
 C3048 C 0.91974 0.80711 0.70728
 C3049 C 0.90823 0.79891 0.70093
 C3050 C 0.90789 0.78929 0.71303
 C3051 C 0.92977 0.78824 0.71218
 C3052 C 0.91825 0.78003 0.70584
 C3053 C 0.93010 0.79786 0.70009
 C3054 C 0.91840 0.78974 0.69366
 C3055 C 0.89625 0.80487 0.69465
 C3056 C 0.88641 0.80980 0.68949
 C3057 C 0.94183 0.78234 0.71836
 C3058 C 0.95183 0.77754 0.72335
 H3059 H 0.92022 0.80048 0.73015
 H3060 H 0.92023 0.81831 0.70779
 H3061 H 0.89862 0.78583 0.71828
 H3062 H 0.91777 0.76883 0.70533
 H3063 H 0.93937 0.80131 0.69484
 H3064 H 0.91778 0.78666 0.68297
 C3065 C 0.57590 0.30184 0.28377
 C3066 C 0.57771 0.30453 0.29897
 C3067 C 0.59203 0.29859 0.29813
 C3068 C 0.59041 0.29600 0.28303
 C3069 C 0.57056 0.28764 0.28706
 C3070 C 0.58489 0.28170 0.28621
 C3071 C 0.57219 0.29023 0.30216
 C3072 C 0.58669 0.28439 0.30141
 C3073 C 0.60395 0.30466 0.30438
 C3074 C 0.61375 0.30963 0.30956
 C3075 C 0.55853 0.28159 0.28099
 C3076 C 0.54854 0.27671 0.27609
 H3077 H 0.57133 0.30895 0.27645
 H3078 H 0.57488 0.31398 0.30428
 H3079 H 0.59805 0.29845 0.27524
 H3080 H 0.58771 0.27225 0.28090
 H3081 H 0.56456 0.28779 0.30995
 H3082 H 0.59126 0.27728 0.30874
 C3083 C 0.57627 0.78384 0.79992
 C3084 C 0.59053 0.78442 0.79353
 C3085 C 0.59176 0.79921 0.79806
 C3086 C 0.57769 0.79871 0.80455
 C3087 C 0.57021 0.78881 0.78663
 C3088 C 0.57144 0.80360 0.79116
 C3089 C 0.58428 0.78931 0.78013
 C3090 C 0.58570 0.80419 0.78476
 C3091 C 0.60372 0.80503 0.80448
 C3092 C 0.61352 0.80988 0.80977
 C3093 C 0.55812 0.78298 0.78047
 C3094 C 0.54807 0.77813 0.77566
 H3095 H 0.57226 0.77540 0.80608
 H3096 H 0.59851 0.77660 0.79458
 H3097 H 0.57511 0.80264 0.81466
 H3098 H 0.56347 0.81143 0.79011
 H3099 H 0.58685 0.78538 0.77002
 H3100 H 0.58972 0.81264 0.77861
 C3101 C 0.08021 0.29558 0.78100
 C3102 C 0.08005 0.30583 0.79274
 C3103 C 0.09160 0.29794 0.79942
 C3104 C 0.09195 0.28778 0.78777
 C3105 C 0.07008 0.28673 0.78871
 C3106 C 0.08163 0.27884 0.79538
 C3107 C 0.06974 0.29689 0.80035
 C3108 C 0.08147 0.28910 0.80712
 C3109 C 0.10356 0.30420 0.80542
 C3110 C 0.11338 0.30933 0.81041
 C3111 C 0.05802 0.28064 0.78275
 C3112 C 0.04801 0.27582 0.77784
 H3113 H 0.07956 0.29817 0.77019
 H3114 H 0.07953 0.31699 0.79172
 H3115 H 0.10123 0.28412 0.78266
 H3116 H 0.08215 0.26768 0.79640
 H3117 H 0.06047 0.30057 0.80546
 H3118 H 0.08212 0.28651 0.81793
 C3119 C 0.08050 0.79600 0.28059
 C3120 C 0.08038 0.80625 0.29234
 C3121 C 0.09193 0.79834 0.29899
 C3122 C 0.09225 0.78819 0.28734
 C3123 C 0.07037 0.78717 0.28832
 C3124 C 0.08193 0.77926 0.29497
 C3125 C 0.07007 0.79733 0.29997
 C3126 C 0.08181 0.78951 0.30671
 C3127 C 0.10390 0.80456 0.30502
 C3128 C 0.11373 0.80963 0.31006
 C3129 C 0.05829 0.78104 0.28242
 C3130 C 0.04825 0.77618 0.27759
 H3131 H 0.07982 0.79860 0.26978
 H3132 H 0.07987 0.81742 0.29132
 H3133 H 0.10151 0.78452 0.28221
 H3134 H 0.08244 0.76810 0.29599
 H3135 H 0.06081 0.80102 0.30510
 H3136 H 0.08248 0.78693 0.31752
 C3137 C 0.57045 0.70459 0.69928
 C3138 C 0.58356 0.71248 0.69603
 C3139 C 0.59187 0.70074 0.70183
 C3140 C 0.57893 0.69276 0.70498
 C3141 C 0.57025 0.71109 0.71327
 C3142 C 0.57855 0.69934 0.71908
 C3143 C 0.58318 0.71907 0.71011
 C3144 C 0.59167 0.70723 0.71583
 C3145 C 0.60387 0.69495 0.69541
 C3146 C 0.61372 0.69014 0.69015
 C3147 C 0.55813 0.71689 0.71944
 C3148 C 0.54806 0.72172 0.72426
 H3149 H 0.56159 0.70356 0.69254
 H3150 H 0.58575 0.71782 0.68648
 H3151 H 0.57733 0.68187 0.70279
 H3152 H 0.57636 0.69400 0.72862
 H3153 H 0.58479 0.72995 0.71231
 H3154 H 0.60054 0.70825 0.72256
 C3155 C 0.58152 0.20362 0.22030
 C3156 C 0.58131 0.19261 0.20925
 C3157 C 0.59208 0.20058 0.20147
 C3158 C 0.59248 0.21149 0.21242
 C3159 C 0.57057 0.21144 0.21262
 C3160 C 0.58134 0.21940 0.20483
 C3161 C 0.57017 0.20052 0.20167
 C3162 C 0.58113 0.20839 0.19379
 C3163 C 0.60406 0.19456 0.19520
 C3164 C 0.61390 0.18964 0.19002
 C3165 C 0.55851 0.21744 0.21872
 C3166 C 0.54851 0.22231 0.22365
 H3167 H 0.58155 0.20173 0.23128
 H3168 H 0.58142 0.18153 0.21100
 H3169 H 0.60180 0.21592 0.21677
 H3170 H 0.58123 0.23049 0.20308
 H3171 H 0.56086 0.19608 0.19732
 H3172 H 0.58109 0.21028 0.18282
 C3173 C 0.07318 0.71212 0.19588
 C3174 C 0.08792 0.71673 0.19841
 C3175 C 0.09204 0.70187 0.20029
 C3176 C 0.07749 0.69718 0.19767
 C3177 C 0.07044 0.71300 0.21102
 C3178 C 0.07457 0.69814 0.21290
 C3179 C 0.08499 0.71769 0.21365
 C3180 C 0.08930 0.70274 0.21543
 C3181 C 0.10402 0.69562 0.19427
 C3182 C 0.11385 0.69047 0.18926
 C3183 C 0.05833 0.71905 0.21698
 C3184 C 0.04827 0.72383 0.22189
 H3185 H 0.06642 0.71606 0.18790
 H3186 H 0.09354 0.72430 0.19239
 H3187 H 0.07453 0.68867 0.19104
 H3188 H 0.06894 0.69056 0.21892
 H3189 H 0.08793 0.72620 0.22029
 H3190 H 0.09606 0.69880 0.22341
 C3191 C 0.07333 0.21174 0.69622
 C3192 C 0.08809 0.21613 0.69901
 C3193 C 0.09202 0.20120 0.70069
 C3194 C 0.07745 0.19672 0.69782
 C3195 C 0.07042 0.21240 0.71134
 C3196 C 0.07436 0.19747 0.71303
 C3197 C 0.08499 0.21689 0.71422
 C3198 C 0.08911 0.20185 0.71581
 C3199 C 0.10403 0.19495 0.69471
 C3200 C 0.11389 0.18984 0.68974
 C3201 C 0.05831 0.21852 0.71725
 C3202 C 0.04826 0.22337 0.72211
 H3203 H 0.06671 0.21588 0.68823
 H3204 H 0.09387 0.22374 0.69317
 H3205 H 0.07447 0.18835 0.69102
 H3206 H 0.06858 0.18986 0.71886
 H3207 H 0.08796 0.22525 0.72103
 H3208 H 0.09573 0.19771 0.72380
 C3209 C 0.42988 0.70048 0.29765
 C3210 C 0.41934 0.70818 0.30624
 C3211 C 0.40799 0.70112 0.29843
 C3212 C 0.41834 0.69333 0.28993
 C3213 C 0.42950 0.71202 0.28734
 C3214 C 0.41815 0.70496 0.27953
 C3215 C 0.41914 0.71981 0.29584
 C3216 C 0.40760 0.71265 0.28812
 C3217 C 0.39602 0.69509 0.30465
 C3218 C 0.38616 0.69016 0.30979
 C3219 C 0.44152 0.71807 0.28125
 C3220 C 0.45150 0.72297 0.27632
 H3221 H 0.43918 0.69554 0.30150
 H3222 H 0.41971 0.70943 0.31730
 H3223 H 0.41789 0.68237 0.28758
 H3224 H 0.41779 0.70370 0.26847
 H3225 H 0.41959 0.73077 0.29820
 H3226 H 0.39830 0.71758 0.28427
 C3227 C 0.41528 0.21635 0.78465
 C3228 C 0.41094 0.20137 0.78319
 C3229 C 0.40830 0.20082 0.79837
 C3230 C 0.41245 0.21570 0.79991
 C3231 C 0.42984 0.21166 0.78728
 C3232 C 0.42720 0.21110 0.80245
 C3233 C 0.42569 0.19677 0.78573
 C3234 C 0.42286 0.19613 0.80099
 C3235 C 0.39632 0.19479 0.80459
 C3236 C 0.38647 0.18986 0.80973
 C3237 C 0.44190 0.21766 0.78121
 C3238 C 0.45190 0.22255 0.77631
 H3239 H 0.41229 0.22472 0.77785
 H3240 H 0.40411 0.19729 0.77535
 H3241 H 0.40688 0.22341 0.80582
 H3242 H 0.43402 0.21517 0.81030
 H3243 H 0.43126 0.18906 0.77982
 H3244 H 0.42584 0.18775 0.80778
 C3245 C 0.92754 0.71132 0.80284
 C3246 C 0.91282 0.71631 0.80091
 C3247 C 0.90833 0.70160 0.79883
 C3248 C 0.92286 0.69651 0.80085
 C3249 C 0.92977 0.71250 0.78764
 C3250 C 0.92528 0.69779 0.78555
 C3251 C 0.91525 0.71759 0.78562
 C3252 C 0.91056 0.70278 0.78363
 C3253 C 0.89640 0.69551 0.80506
 C3254 C 0.88659 0.69048 0.81019
 C3255 C 0.94178 0.71851 0.78146
 C3256 C 0.95173 0.72336 0.77645
 H3257 H 0.93465 0.71490 0.81067
 H3258 H 0.90757 0.72385 0.80731
 H3259 H 0.92585 0.68778 0.80718
 H3260 H 0.93053 0.69025 0.77917
 H3261 H 0.91226 0.72632 0.77929
 H3262 H 0.90345 0.69920 0.77580
 C3263 C 0.91501 0.21366 0.28172
 C3264 C 0.91279 0.19827 0.28365
 C3265 C 0.90808 0.20098 0.29809
 C3266 C 0.91011 0.21626 0.29625
 C3267 C 0.92950 0.21205 0.28700
 C3268 C 0.92478 0.21475 0.30143
 C3269 C 0.92747 0.19676 0.28883
 C3270 C 0.92258 0.19937 0.30336
 C3271 C 0.89619 0.19484 0.30435
 C3272 C 0.88642 0.18983 0.30955
 C3273 C 0.94151 0.21815 0.28092
 C3274 C 0.95149 0.22308 0.27603
 H3275 H 0.91203 0.21960 0.27275
 H3276 H 0.90772 0.19142 0.27642
 H3277 H 0.90283 0.22421 0.29938
 H3278 H 0.92984 0.22159 0.30867
 H3279 H 0.93474 0.18881 0.28571
 H3280 H 0.92556 0.19342 0.31233
 C3281 C 0.28264 0.28571 0.58519
 C3282 C 0.29775 0.28436 0.58905
 C3283 C 0.29807 0.29954 0.59227
 C3284 C 0.28306 0.30099 0.58860
 C3285 C 0.28688 0.28906 0.57075
 C3286 C 0.28720 0.30424 0.57397
 C3287 C 0.30189 0.28763 0.57442
 C3288 C 0.30230 0.30289 0.57783
 C3289 C 0.30436 0.30540 0.60422
 C3290 C 0.30956 0.31025 0.61402
 C3291 C 0.28082 0.28319 0.55869
 C3292 C 0.27604 0.27830 0.54870
 H3293 H 0.27449 0.27858 0.58807
 H3294 H 0.30216 0.27625 0.59537
 H3295 H 0.27539 0.30654 0.59458
 H3296 H 0.28279 0.31235 0.56764
 H3297 H 0.30956 0.28207 0.56845
 H3298 H 0.31045 0.31002 0.57493
 C3299 C 0.28301 0.78543 0.08484
 C3300 C 0.29819 0.78442 0.08851
 C3301 C 0.29816 0.79956 0.09193
 C3302 C 0.28308 0.80067 0.08845
 C3303 C 0.28699 0.78908 0.07040
 C3304 C 0.28696 0.80422 0.07382
 C3305 C 0.30207 0.78798 0.07388
 C3306 C 0.30214 0.80320 0.07749
 C3307 C 0.30442 0.80544 0.10389
 C3308 C 0.30956 0.81032 0.11370
 C3309 C 0.28093 0.78323 0.05833
 C3310 C 0.27616 0.77839 0.04832
 H3311 H 0.27507 0.77805 0.08773
 H3312 H 0.30288 0.77634 0.09468
 H3313 H 0.27534 0.80595 0.09458
 H3314 H 0.28228 0.81230 0.06765
 H3315 H 0.30981 0.78269 0.06776
 H3316 H 0.31008 0.81057 0.07459
 C3317 C 0.78480 0.28354 0.08459
 C3318 C 0.79993 0.28289 0.08854
 C3319 C 0.79955 0.29811 0.09164
 C3320 C 0.78452 0.29885 0.08788
 C3321 C 0.78898 0.28694 0.07014
 C3322 C 0.78861 0.30216 0.07325
 C3323 C 0.80401 0.28621 0.07391
 C3324 C 0.80373 0.30151 0.07719
 C3325 C 0.80546 0.30435 0.10358
 C3326 C 0.81036 0.30949 0.11339
 C3327 C 0.78308 0.28088 0.05810
 C3328 C 0.77819 0.27611 0.04811
 H3329 H 0.77696 0.27607 0.08751
 H3330 H 0.80465 0.27505 0.09498
 H3331 H 0.77657 0.30412 0.09375
 H3332 H 0.78389 0.31001 0.06682
 H3333 H 0.81196 0.28094 0.06804
 H3334 H 0.81157 0.30898 0.07428
 C3335 C 0.80079 0.79648 0.57018
 C3336 C 0.79396 0.80714 0.57935
 C3337 C 0.79864 0.79908 0.59167
 C3338 C 0.80556 0.78852 0.58269
 C3339 C 0.78761 0.78828 0.57023
 C3340 C 0.79229 0.78022 0.58255
 C3341 C 0.78069 0.79884 0.57921
 C3342 C 0.78547 0.79088 0.59172
 C3343 C 0.80481 0.80511 0.60360
 C3344 C 0.80990 0.81007 0.61340
 C3345 C 0.78153 0.78230 0.55823
 C3346 C 0.77659 0.77745 0.54830
 H3347 H 0.80702 0.79872 0.56119
 H3348 H 0.79472 0.81827 0.57816
 H3349 H 0.81586 0.78435 0.58426
 H3350 H 0.79154 0.76909 0.58374
 H3351 H 0.77040 0.80301 0.57764
 H3352 H 0.77924 0.78864 0.60071
 C3353 C 0.29879 0.70143 0.42982
 C3354 C 0.29104 0.69363 0.41878
 C3355 C 0.29890 0.70157 0.40808
 C3356 C 0.30675 0.70927 0.41893
 C3357 C 0.28784 0.71245 0.42949
 C3358 C 0.29571 0.72038 0.41879
 C3359 C 0.27999 0.70474 0.41864
 C3360 C 0.28795 0.71258 0.40775
 C3361 C 0.30504 0.69550 0.39615
 C3362 C 0.31006 0.69050 0.38632
 C3363 C 0.28171 0.71844 0.44146
 C3364 C 0.27672 0.72326 0.45139
 H3365 H 0.30317 0.69692 0.43903
 H3366 H 0.28919 0.68256 0.41865
 H3367 H 0.31782 0.71106 0.41893
 H3368 H 0.29755 0.73145 0.41893
 H3369 H 0.26892 0.70295 0.41865
 H3370 H 0.28356 0.71709 0.39854
 C3371 C 0.30058 0.20259 0.92976
 C3372 C 0.29276 0.19393 0.91942
 C3373 C 0.29962 0.20184 0.90805
 C3374 C 0.30753 0.21041 0.91820
 C3375 C 0.28901 0.21297 0.92957
 C3376 C 0.29587 0.22088 0.91820
 C3377 C 0.28110 0.20439 0.91942
 C3378 C 0.28805 0.21221 0.90786
 C3379 C 0.30555 0.19562 0.89609
 C3380 C 0.31047 0.19050 0.88627
 C3381 C 0.28309 0.21902 0.94162
 C3382 C 0.27819 0.22382 0.95161
 H3383 H 0.30567 0.19871 0.93889
 H3384 H 0.29154 0.18278 0.91979
 H3385 H 0.31847 0.21281 0.91756
 H3386 H 0.29709 0.23203 0.91783
 H3387 H 0.27016 0.20199 0.92006
 H3388 H 0.28296 0.21609 0.89872
 C3389 C 0.80031 0.70258 0.92975
 C3390 C 0.79249 0.69389 0.91944
 C3391 C 0.79937 0.70175 0.90804
 C3392 C 0.80728 0.71035 0.91817
 C3393 C 0.78876 0.71296 0.92952
 C3394 C 0.79563 0.72083 0.91812
 C3395 C 0.78084 0.70436 0.91939
 C3396 C 0.78781 0.71213 0.90780
 C3397 C 0.80533 0.69551 0.89612
 C3398 C 0.81029 0.69040 0.88632
 C3399 C 0.78287 0.71907 0.94155
 C3400 C 0.77802 0.72390 0.95154
 H3401 H 0.80539 0.69873 0.93890
 H3402 H 0.79127 0.68274 0.91984
 H3403 H 0.81822 0.71274 0.91753
 H3404 H 0.79686 0.73198 0.91771
 H3405 H 0.76991 0.70197 0.92002
 H3406 H 0.78274 0.71597 0.89864
 C3407 C 0.80038 0.20245 0.42959
 C3408 C 0.79252 0.19394 0.41916
 C3409 C 0.79955 0.20182 0.40788
 C3410 C 0.80751 0.21024 0.41812
 C3411 C 0.78895 0.21297 0.42939
 C3412 C 0.79599 0.22086 0.41810
 C3413 C 0.78100 0.20455 0.41914
 C3414 C 0.78812 0.21234 0.40767
 C3415 C 0.80545 0.19563 0.39590
 C3416 C 0.81034 0.19056 0.38604
 C3417 C 0.78304 0.21904 0.44142
 C3418 C 0.77814 0.22384 0.45141
 H3419 H 0.80536 0.19845 0.43875
 H3420 H 0.79116 0.18280 0.41948
 H3421 H 0.81849 0.21248 0.41757
 H3422 H 0.79736 0.23199 0.41779
 H3423 H 0.77003 0.20228 0.41969
 H3424 H 0.78315 0.21632 0.39851
 C3425 C 0.69828 0.29566 0.42951
 C3426 C 0.70563 0.30572 0.42010
 C3427 C 0.70035 0.29777 0.40796
 C3428 C 0.69290 0.28781 0.41718
 C3429 C 0.71093 0.28665 0.42948
 C3430 C 0.70565 0.27870 0.41734
 C3431 C 0.71837 0.29662 0.42026
 C3432 C 0.71300 0.28876 0.40793
 C3433 C 0.69445 0.30396 0.39598
 C3434 C 0.68957 0.30903 0.38613
 C3435 C 0.71684 0.28059 0.44152
 C3436 C 0.72173 0.27580 0.45150
 H3437 H 0.69229 0.29842 0.43852
 H3438 H 0.70557 0.31690 0.42111
 H3439 H 0.68236 0.28427 0.41578
 H3440 H 0.70572 0.26752 0.41633
 H3441 H 0.72892 0.30016 0.42166
 H3442 H 0.71899 0.28601 0.39892
 C3443 C 0.69598 0.78564 0.92568
 C3444 C 0.69587 0.80098 0.92258
 C3445 C 0.70028 0.79786 0.90813
 C3446 C 0.70030 0.78261 0.91105
 C3447 C 0.71095 0.78673 0.92960
 C3448 C 0.71537 0.78361 0.91516
 C3449 C 0.71092 0.80198 0.92668
 C3450 C 0.71525 0.79895 0.91205
 C3451 C 0.69430 0.80409 0.89621
 C3452 C 0.68935 0.80921 0.88642
 C3453 C 0.71689 0.78067 0.94163
 C3454 C 0.72180 0.77590 0.95162
 H3455 H 0.68812 0.78009 0.93142
 H3456 H 0.68779 0.80820 0.92549
 H3457 H 0.69586 0.77472 0.90448
 H3458 H 0.72345 0.77639 0.91225
 H3459 H 0.71536 0.80988 0.93324
 H3460 H 0.72310 0.80451 0.90632
 C3461 C 0.19727 0.29402 0.92918
 C3462 C 0.20366 0.30583 0.92119
 C3463 C 0.20055 0.29829 0.90809
 C3464 C 0.19407 0.28657 0.91589
 C3465 C 0.21112 0.28699 0.92954
 C3466 C 0.20801 0.27944 0.91644
 C3467 C 0.21760 0.29871 0.92174
 C3468 C 0.21440 0.29126 0.90845
 C3469 C 0.19461 0.30459 0.89618
 C3470 C 0.18965 0.30972 0.88640
 C3471 C 0.21700 0.28084 0.94156
 C3472 C 0.22185 0.27600 0.95154
 H3473 H 0.19029 0.29508 0.93783
 H3474 H 0.20182 0.31675 0.92302
 H3475 H 0.18432 0.28165 0.91336
 H3476 H 0.20986 0.26853 0.91462
 H3477 H 0.22734 0.30363 0.92427
 H3478 H 0.22138 0.29021 0.89980
 C3479 C 0.21859 0.78784 0.41545
 C3480 C 0.20475 0.78373 0.40946
 C3481 C 0.20110 0.79876 0.40804
 C3482 C 0.21484 0.80297 0.41385
 C3483 C 0.21217 0.78795 0.42948
 C3484 C 0.20851 0.80299 0.42806
 C3485 C 0.19843 0.78375 0.42367
 C3486 C 0.19468 0.79887 0.42207
 C3487 C 0.19493 0.80481 0.39612
 C3488 C 0.18985 0.80980 0.38632
 C3489 C 0.21827 0.78201 0.44148
 C3490 C 0.22323 0.77720 0.45143
 H3491 H 0.22849 0.78324 0.41287
 H3492 H 0.20313 0.77588 0.40167
 H3493 H 0.22152 0.81094 0.40968
 H3494 H 0.21013 0.81084 0.43585
 H3495 H 0.19175 0.77577 0.42784
 H3496 H 0.18479 0.80347 0.42466
 C3497 C 0.71119 0.71946 0.58407
 C3498 C 0.69626 0.71488 0.58521
 C3499 C 0.70102 0.70164 0.59174
 C3500 C 0.71585 0.70613 0.59079
 C3501 C 0.71208 0.71251 0.57032
 C3502 C 0.71683 0.69927 0.57686
 C3503 C 0.69725 0.70802 0.57128
 C3504 C 0.70191 0.69469 0.57800
 C3505 C 0.69486 0.69557 0.60367
 C3506 C 0.68982 0.69056 0.61348
 C3507 C 0.71821 0.71849 0.55835
 C3508 C 0.72321 0.72332 0.54842
 H3509 H 0.71507 0.72971 0.58642
 H3510 H 0.68773 0.72123 0.58877
 H3511 H 0.72343 0.70528 0.59894
 H3512 H 0.72536 0.69293 0.57329
 H3513 H 0.68968 0.70887 0.56312
 H3514 H 0.69803 0.68444 0.57562
 C3515 C 0.70539 0.19876 0.07067
 C3516 C 0.71300 0.19636 0.08403
 C3517 C 0.70074 0.20197 0.09169
 C3518 C 0.69304 0.20427 0.07851
 C3519 C 0.71122 0.21314 0.07013
 C3520 C 0.69897 0.21875 0.07778
 C3521 C 0.71892 0.21083 0.08330
 C3522 C 0.70657 0.21635 0.09115
 C3523 C 0.69485 0.19571 0.10366
 C3524 C 0.68996 0.19057 0.11348
 C3525 C 0.71707 0.21923 0.05806
 C3526 C 0.72192 0.22404 0.04806
 H3527 H 0.70496 0.19159 0.06212
 H3528 H 0.71870 0.18708 0.08673
 H3529 H 0.68234 0.20150 0.07668
 H3530 H 0.69326 0.22803 0.07508
 H3531 H 0.72963 0.21360 0.08513
 H3532 H 0.70700 0.22352 0.09970
 C3533 C 0.19883 0.71396 0.07491
 C3534 C 0.19705 0.69863 0.07752
 C3535 C 0.20223 0.70069 0.09189
 C3536 C 0.20392 0.71593 0.08946
 C3537 C 0.21344 0.71130 0.07041
 C3538 C 0.21863 0.71336 0.08478
 C3539 C 0.21175 0.69605 0.07284
 C3540 C 0.21684 0.69802 0.08739
 C3541 C 0.19595 0.69475 0.10381
 C3542 C 0.19077 0.68982 0.11360
 C3543 C 0.21954 0.71721 0.05838
 C3544 C 0.22434 0.72209 0.04839
 H3545 H 0.19149 0.72058 0.06965
 H3546 H 0.18810 0.69252 0.07466
 H3547 H 0.20062 0.72404 0.09643
 H3548 H 0.22757 0.71948 0.08763
 H3549 H 0.21505 0.68794 0.06587
 H3550 H 0.22417 0.69139 0.09266
 C3551 C 0.21237 0.21796 0.58446
 C3552 C 0.19742 0.21345 0.58558
 C3553 C 0.20210 0.20023 0.59220
 C3554 C 0.21695 0.20464 0.59127
 C3555 C 0.21328 0.21093 0.57076
 C3556 C 0.21796 0.19771 0.57738
 C3557 C 0.19843 0.20651 0.57169
 C3558 C 0.20301 0.19320 0.57850
 C3559 C 0.19583 0.19423 0.60412
 C3560 C 0.19068 0.18928 0.61390
 C3561 C 0.21937 0.21688 0.55873
 C3562 C 0.22417 0.22179 0.54875
 H3563 H 0.21629 0.22821 0.58678
 H3564 H 0.18891 0.21986 0.58908
 H3565 H 0.22449 0.20381 0.59946
 H3566 H 0.22647 0.19130 0.57388
 H3567 H 0.19088 0.20735 0.56351
 H3568 H 0.19908 0.18296 0.57617
   
