data_POSCAR
  _audit_creation_date              2014-09-24
  _audit_creation_method            'ToBaCCo'
  _symmetry_space_group_name_H-M    'P1'
  _symmetry_Int_Tables_number       1
  _symmetry_cell_setting            triclinic
  loop_
  _symmetry_equiv_pos_as_xyz
 x,y,z
_cell_length_a 67.3769
_cell_length_b 67.3262
_cell_length_c 72.1022
_cell_angle_alpha 90.194600
_cell_angle_beta 90.047000
_cell_angle_gamma 90.103200
loop_
  _atom_site_label
  _atom_site_type_symbol
  _atom_site_fract_x
  _atom_site_fract_y
  _atom_site_fract_z
C1 C 0.40152 -0.02658 0.25259
 C2 C 0.41002 -0.00892 0.24601
 C3 C 0.41858 -0.00848 0.22839
 C4 C 0.41900 -0.02556 0.21725
 C5 C 0.41030 -0.04319 0.22388
 C6 C 0.40117 -0.04405 0.24159
 C7 C 0.41072 0.00906 0.25780
 C8 C 0.42061 0.00857 0.27487
 C9 C 0.42212 0.02567 0.28619
 C10 C 0.41280 0.04326 0.27990
 C11 C 0.40257 0.04388 0.26285
 C12 C 0.40186 0.02670 0.25180
 H13 H 0.39570 -0.02656 0.26657
 H14 H 0.42553 0.00511 0.22364
 H15 H 0.42668 -0.00550 0.27930
 H16 H 0.39392 0.02680 0.23872
 H17 H 0.40978 -0.05581 0.21458
 H18 H 0.41421 0.05694 0.28769
 C19 C 0.09593 -0.03407 0.74881
 C20 C 0.08711 -0.01630 0.75472
 C21 C 0.07652 -0.01583 0.77141
 C22 C 0.07447 -0.03302 0.78224
 C23 C 0.08363 -0.05072 0.77627
 C24 C 0.09456 -0.05137 0.75961
 C25 C 0.08834 0.00166 0.74309
 C26 C 0.07957 0.00167 0.72549
 C27 C 0.07989 0.01875 0.71417
 C28 C 0.08979 0.03584 0.72110
 C29 C 0.09892 0.03594 0.73871
 C30 C 0.09782 0.01879 0.74970
 H31 H 0.10388 -0.03434 0.73575
 H32 H 0.06933 -0.00215 0.77560
 H33 H 0.07154 -0.01154 0.72133
 H34 H 0.10441 0.01867 0.76342
 H35 H 0.08274 -0.06383 0.78488
 H36 H 0.09150 0.04883 0.71247
 C37 C 0.59723 0.47675 0.24905
 C38 C 0.58849 0.49424 0.25576
 C39 C 0.57933 0.49430 0.27318
 C40 C 0.57862 0.47697 0.28397
 C41 C 0.58766 0.45955 0.27716
 C42 C 0.59719 0.45933 0.25976
 C43 C 0.58864 0.51243 0.24440
 C44 C 0.57920 0.51253 0.22711
 C45 C 0.57894 0.52976 0.21618
 C46 C 0.58868 0.54695 0.22274
 C47 C 0.59850 0.54701 0.24002
 C48 C 0.59810 0.52969 0.25087
 H49 H 0.60416 0.47680 0.23550
 H50 H 0.57225 0.50778 0.27805
 H51 H 0.57159 0.49923 0.22242
 H52 H 0.60527 0.52951 0.26433
 H53 H 0.58783 0.44635 0.28569
 H54 H 0.58918 0.56005 0.21409
 C55 C 0.90197 0.47839 0.74920
 C56 C 0.91142 0.49545 0.74242
 C57 C 0.92021 0.49508 0.72485
 C58 C 0.91980 0.47777 0.71394
 C59 C 0.91007 0.46078 0.72080
 C60 C 0.90092 0.46098 0.73839
 C61 C 0.91237 0.51371 0.75377
 C62 C 0.92264 0.51369 0.77065
 C63 C 0.92446 0.53114 0.78149
 C64 C 0.91512 0.54860 0.77486
 C65 C 0.90450 0.54870 0.75800
 C66 C 0.90352 0.53119 0.74744
 H67 H 0.89535 0.47878 0.76289
 H68 H 0.92785 0.50822 0.71993
 H69 H 0.93011 0.50013 0.77455
 H70 H 0.89579 0.53106 0.73425
 H71 H 0.90908 0.44761 0.71218
 H72 H 0.91501 0.56195 0.78323
 C73 C 0.25930 0.35125 1.01996
 C74 C 0.25967 0.36501 1.00535
 C75 C 0.27614 0.37765 1.00323
 C76 C 0.29228 0.37647 1.01557
 C77 C 0.29150 0.36280 1.03022
 C78 C 0.27523 0.34981 1.03268
 C79 C 0.24350 0.36480 0.99141
 C80 C 0.22732 0.37790 0.99284
 C81 C 0.21137 0.37668 0.98018
 C82 C 0.21215 0.36240 0.96589
 C83 C 0.22819 0.34918 0.96429
 C84 C 0.24380 0.35050 0.97719
 H85 H 0.24685 0.34110 1.02069
 H86 H 0.27662 0.38788 0.99168
 H87 H 0.22692 0.38859 1.00410
 H88 H 0.25609 0.34017 0.97642
 H89 H 0.30344 0.36312 1.04025
 H90 H 0.20036 0.36185 0.95569
 C91 C 0.73851 0.15136 1.02264
 C92 C 0.73666 0.13819 1.00760
 C93 C 0.71951 0.12646 1.00581
 C94 C 0.70415 0.12783 1.01897
 C95 C 0.70637 0.14098 1.03406
 C96 C 0.72341 0.15311 1.03617
 C97 C 0.75219 0.13797 0.99307
 C98 C 0.76836 0.12483 0.99419
 C99 C 0.78390 0.12577 0.98112
 C100 C 0.78277 0.13987 0.96680
 C101 C 0.76679 0.15319 0.96555
 C102 C 0.75152 0.15208 0.97879
 H103 H 0.75146 0.16087 1.02304
 H104 H 0.71795 0.11670 0.99392
 H105 H 0.76909 0.11433 1.00552
 H106 H 0.73928 0.16249 0.97829
 H107 H 0.69500 0.14090 1.04462
 H108 H 0.79428 0.14026 0.95633
 C109 C 0.24295 0.64341 0.52374
 C110 C 0.24170 0.63152 0.50774
 C111 C 0.22436 0.62041 0.50427
 C112 C 0.20824 0.62124 0.51670
 C113 C 0.20987 0.63314 0.53268
 C114 C 0.22708 0.64427 0.53636
 C115 C 0.25822 0.63175 0.49421
 C116 C 0.27490 0.61947 0.49666
 C117 C 0.29119 0.62076 0.48445
 C118 C 0.29041 0.63439 0.46975
 C119 C 0.27397 0.64689 0.46722
 C120 C 0.25784 0.64536 0.47950
 H121 H 0.25632 0.65194 0.52635
 H122 H 0.22329 0.61152 0.49176
 H123 H 0.27535 0.60930 0.50826
 H124 H 0.24517 0.65511 0.47794
 H125 H 0.19757 0.63382 0.54231
 H126 H 0.30257 0.63500 0.45995
 C127 C 0.75618 0.85230 0.52245
 C128 C 0.75846 0.86475 0.50706
 C129 C 0.77615 0.87565 0.50484
 C130 C 0.79178 0.87434 0.51799
 C131 C 0.78884 0.86172 0.53342
 C132 C 0.77139 0.85052 0.53565
 C133 C 0.74285 0.86499 0.49257
 C134 C 0.72538 0.87613 0.49501
 C135 C 0.70999 0.87529 0.48175
 C136 C 0.71241 0.86301 0.46606
 C137 C 0.72966 0.85158 0.46353
 C138 C 0.74489 0.85284 0.47684
 H139 H 0.74277 0.84352 0.52380
 H140 H 0.77781 0.88438 0.49237
 H141 H 0.72367 0.88511 0.50740
 H142 H 0.75813 0.84386 0.47532
 H143 H 0.79971 0.86113 0.54444
 H144 H 0.70094 0.86264 0.45554
 C145 C -0.03305 0.24268 0.33558
 C146 C -0.01304 0.23861 0.33893
 C147 C -0.00743 0.22011 0.34592
 C148 C -0.02175 0.20561 0.35018
 C149 C -0.04181 0.20989 0.34639
 C150 C -0.04778 0.22841 0.33925
 C151 C 0.00187 0.25447 0.33716
 C152 C -0.00091 0.27234 0.34678
 C153 C 0.01424 0.28658 0.34754
 C154 C 0.03192 0.28318 0.33785
 C155 C 0.03481 0.26541 0.32802
 C156 C 0.01971 0.25105 0.32774
 H157 H -0.03684 0.25698 0.32975
 H158 H 0.00818 0.21734 0.34829
 H159 H -0.01453 0.27472 0.35446
 H160 H 0.02194 0.23710 0.32050
 H161 H -0.05309 0.19969 0.35112
 H162 H 0.04399 0.29377 0.33902
 C163 C -0.03198 0.76010 0.16254
 C164 C -0.01149 0.76287 0.16062
 C165 C -0.00411 0.78120 0.15468
 C166 C -0.01710 0.79662 0.15023
 C167 C -0.03759 0.79378 0.15230
 C168 C -0.04541 0.77548 0.15835
 C169 C 0.00217 0.74599 0.16273
 C170 C -0.00126 0.72849 0.15267
 C171 C 0.01302 0.71323 0.15207
 C172 C 0.03038 0.71560 0.16279
 C173 C 0.03386 0.73304 0.17299
 C174 C 0.01966 0.74816 0.17295
 H175 H -0.03717 0.74593 0.16768
 H176 H 0.01171 0.78313 0.15261
 H177 H -0.01503 0.72715 0.14503
 H178 H 0.02240 0.76184 0.18051
 H179 H -0.04739 0.80539 0.14750
 H180 H 0.04228 0.70488 0.16187
 C181 C 0.47434 0.25529 0.67274
 C182 C 0.49395 0.25707 0.66657
 C183 C 0.50011 0.27453 0.65776
 C184 C 0.48663 0.28996 0.65456
 C185 C 0.46710 0.28815 0.66102
 C186 C 0.46081 0.27079 0.66995
 C187 C 0.50721 0.23976 0.66668
 C188 C 0.50104 0.22210 0.65807
 C189 C 0.51454 0.20663 0.65506
 C190 C 0.53406 0.20859 0.66149
 C191 C 0.54038 0.22614 0.67017
 C192 C 0.52685 0.24169 0.67280
 H193 H 0.46952 0.24163 0.67926
 H194 H 0.51509 0.27560 0.65237
 H195 H 0.48607 0.22092 0.65265
 H196 H 0.53170 0.25551 0.67910
 H197 H 0.45637 0.29960 0.65782
 H198 H 0.54481 0.19710 0.65838
 C199 C 0.47844 0.74474 0.82994
 C200 C 0.49726 0.74171 0.83754
 C201 C 0.50203 0.72324 0.84523
 C202 C 0.48788 0.70783 0.84612
 C203 C 0.46914 0.71113 0.83800
 C204 C 0.46430 0.72953 0.83018
 C205 C 0.51121 0.75844 0.83956
 C206 C 0.50475 0.77623 0.84770
 C207 C 0.51835 0.79129 0.85204
 C208 C 0.53844 0.78863 0.84777
 C209 C 0.54506 0.77096 0.83959
 C210 C 0.53135 0.75593 0.83540
 H211 H 0.47468 0.75911 0.82419
 H212 H 0.51676 0.72124 0.85089
 H213 H 0.48927 0.77797 0.85144
 H214 H 0.53637 0.74215 0.82918
 H215 H 0.45742 0.70023 0.83934
 H216 H 0.54915 0.79984 0.85189
 C217 C -0.27450 0.65522 0.99785
 C218 C -0.25760 0.66505 1.00463
 C219 C -0.25846 0.67522 1.02153
 C220 C -0.27614 0.67589 1.03175
 C221 C -0.29298 0.66582 1.02494
 C222 C -0.29250 0.65513 1.00796
 C223 C -0.23912 0.66542 0.99366
 C224 C -0.23854 0.67585 0.97690
 C225 C -0.22089 0.67722 0.96640
 C226 C -0.20387 0.66730 0.97322
 C227 C -0.20432 0.65659 0.98998
 C228 C -0.22203 0.65597 1.00021
 H229 H -0.27348 0.64820 0.98438
 H230 H -0.24544 0.68315 1.02639
 H231 H -0.25179 0.68377 0.97284
 H232 H -0.22259 0.64812 1.01329
 H233 H -0.30605 0.66551 1.03362
 H234 H -0.19042 0.66683 0.96507
 C235 C -0.27618 0.34329 0.50175
 C236 C -0.25940 0.33346 0.49485
 C237 C -0.26035 0.32366 0.47776
 C238 C -0.27801 0.32336 0.46748
 C239 C -0.29475 0.33344 0.47441
 C240 C -0.29415 0.34380 0.49157
 C241 C -0.24082 0.33308 0.50569
 C242 C -0.24025 0.32329 0.52280
 C243 C -0.22265 0.32266 0.53323
 C244 C -0.20565 0.33238 0.52642
 C245 C -0.20608 0.34264 0.50943
 C246 C -0.22373 0.34260 0.49900
 H247 H -0.27508 0.35008 0.51533
 H248 H -0.24739 0.31578 0.47276
 H249 H -0.25360 0.31624 0.52797
 H250 H -0.22447 0.35056 0.48598
 H251 H -0.30778 0.33408 0.46569
 H252 H -0.19195 0.33174 0.53426
 C253 C 0.21918 -0.14905 -0.00060
 C254 C 0.23626 -0.15961 -0.00548
 C255 C 0.23659 -0.17088 -0.02180
 C256 C 0.21982 -0.17210 -0.03351
 C257 C 0.20278 -0.16103 -0.02842
 C258 C 0.20238 -0.14942 -0.01211
 C259 C 0.25391 -0.15919 0.00658
 C260 C 0.25341 -0.16880 0.02374
 C261 C 0.27030 -0.16939 0.03534
 C262 C 0.28763 -0.15941 0.02922
 C263 C 0.28820 -0.14945 0.01206
 C264 C 0.27126 -0.14968 0.00074
 H265 H 0.21926 -0.14011 0.01192
 H266 H 0.25035 -0.17819 -0.02540
 H267 H 0.23948 -0.17535 0.02801
 H268 H 0.27131 -0.14202 -0.01246
 H269 H 0.18933 -0.16206 -0.03655
 H270 H 0.30118 -0.16009 0.03724
 C271 C 0.22493 1.15082 0.49803
 C272 C 0.24195 1.16029 0.50491
 C273 C 0.24151 1.16930 0.52241
 C274 C 0.22410 1.16916 0.53311
 C275 C 0.20712 1.15941 0.52614
 C276 C 0.20745 1.14999 0.50864
 C277 C 0.26012 1.16135 0.49356
 C278 C 0.25978 1.17141 0.47662
 C279 C 0.27687 1.17276 0.46537
 C280 C 0.29432 1.16310 0.47161
 C281 C 0.29477 1.15268 0.48855
 C282 C 0.27759 1.15219 0.49955
 H283 H 0.22537 1.14407 0.48437
 H284 H 0.25462 1.17699 0.52740
 H285 H 0.24576 1.17758 0.47215
 H286 H 0.27751 1.14405 0.51249
 H287 H 0.19387 1.15863 0.53459
 H288 H 0.30796 1.16427 0.46381
 C289 C 0.10038 0.50634 0.22559
 C290 C 0.11392 0.50702 0.24038
 C291 C 0.12647 0.52359 0.24248
 C292 C 0.12548 0.53953 0.22989
 C293 C 0.11194 0.53844 0.21506
 C294 C 0.09924 0.52203 0.21283
 C295 C 0.11361 0.49108 0.25441
 C296 C 0.12601 0.47440 0.25274
 C297 C 0.12458 0.45863 0.26549
 C298 C 0.11075 0.46002 0.28004
 C299 C 0.09821 0.47656 0.28184
 C300 C 0.09977 0.49205 0.26891
 H301 H 0.09040 0.49376 0.22434
 H302 H 0.13652 0.52430 0.25421
 H303 H 0.13632 0.47349 0.24124
 H304 H 0.08995 0.50474 0.26986
 H305 H 0.11154 0.55031 0.20496
 H306 H 0.11003 0.44831 0.29028
 C307 C -0.10015 0.99748 0.22507
 C308 C -0.11394 0.99597 0.23953
 C309 C -0.12647 0.97934 0.24059
 C310 C -0.12544 0.96392 0.22724
 C311 C -0.11160 0.96608 0.21263
 C312 C -0.09863 0.98256 0.21135
 C313 C -0.11416 1.01126 0.25432
 C314 C -0.12696 1.02768 0.25318
 C315 C -0.12706 1.04257 0.26715
 C316 C -0.11369 1.04033 0.28215
 C317 C -0.10088 1.02394 0.28348
 C318 C -0.10121 1.00948 0.26942
 H319 H -0.09008 1.01002 0.22521
 H320 H -0.13624 0.97823 0.25244
 H321 H -0.13717 1.02827 0.24162
 H322 H -0.09153 0.99668 0.27026
 H323 H -0.11202 0.95560 0.20128
 H324 H -0.11224 1.05190 0.29250
 C325 C 0.39937 0.48687 -0.27072
 C326 C 0.38576 0.48624 -0.25602
 C327 C 0.37269 0.47009 -0.25442
 C328 C 0.37321 0.45446 -0.26742
 C329 C 0.38681 0.45546 -0.28221
 C330 C 0.40020 0.47153 -0.28415
 C331 C 0.38644 0.50192 -0.24159
 C332 C 0.37393 0.51859 -0.24263
 C333 C 0.37570 0.53448 -0.22975
 C334 C 0.39013 0.53265 -0.21558
 C335 C 0.40277 0.51613 -0.21447
 C336 C 0.40081 0.50083 -0.22759
 H337 H 0.40986 0.49904 -0.27096
 H338 H 0.36258 0.46945 -0.24276
 H339 H 0.36368 0.51941 -0.25415
 H340 H 0.41072 0.48817 -0.22716
 H341 H 0.38610 0.44397 -0.29269
 H342 H 0.39108 0.54363 -0.20463
 C343 C 0.60087 0.01006 -0.26978
 C344 C 0.61449 0.01095 -0.25508
 C345 C 0.62748 0.02717 -0.25356
 C346 C 0.62687 0.04263 -0.26662
 C347 C 0.61326 0.04139 -0.28140
 C348 C 0.59995 0.02522 -0.28328
 C349 C 0.61400 -0.00459 -0.24065
 C350 C 0.62669 -0.02110 -0.24166
 C351 C 0.62512 -0.03660 -0.22865
 C352 C 0.61088 -0.03509 -0.21446
 C353 C 0.59804 -0.01871 -0.21330
 C354 C 0.59972 -0.00350 -0.22652
 H355 H 0.59045 -0.00218 -0.26997
 H356 H 0.63762 0.02799 -0.24190
 H357 H 0.63731 -0.02213 -0.25290
 H358 H 0.58967 0.00904 -0.22610
 H359 H 0.61389 0.05276 -0.29193
 H360 H 0.61003 -0.04659 -0.20402
 C361 C -0.00828 0.22506 0.92211
 C362 C -0.00890 0.24539 0.91809
 C363 C -0.02644 0.25375 0.91113
 C364 C -0.04311 0.24183 0.90773
 C365 C -0.04238 0.22157 0.91203
 C366 C -0.02497 0.21304 0.91897
 C367 C 0.00943 0.25734 0.91839
 C368 C 0.02614 0.25054 0.90866
 C369 C 0.04235 0.26317 0.90571
 C370 C 0.04228 0.28222 0.91352
 C371 C 0.02552 0.28938 0.92280
 C372 C 0.00923 0.27675 0.92552
 H373 H 0.00538 0.21853 0.92716
 H374 H -0.02670 0.26927 0.90721
 H375 H 0.02574 0.23613 0.90192
 H376 H -0.00409 0.28238 0.93209
 H377 H -0.05484 0.21208 0.90851
 H378 H 0.05485 0.29199 0.91129
 C379 C 0.51025 0.22770 0.08992
 C380 C 0.51950 0.24531 0.09576
 C381 C 0.54028 0.24633 0.09645
 C382 C 0.55187 0.22979 0.09165
 C383 C 0.54240 0.21252 0.08532
 C384 C 0.52167 0.21115 0.08512
 C385 C 0.50758 0.26179 0.10332
 C386 C 0.49233 0.25788 0.11602
 C387 C 0.48131 0.27344 0.12376
 C388 C 0.48559 0.29303 0.11865
 C389 C 0.50079 0.29716 0.10598
 C390 C 0.51183 0.28147 0.09843
 H391 H 0.49421 0.22652 0.09006
 H392 H 0.54726 0.25943 0.10230
 H393 H 0.48934 0.24273 0.12023
 H394 H 0.52366 0.28452 0.08866
 H395 H 0.55115 0.19961 0.08160
 H396 H 0.47654 0.30504 0.12400
 C397 C -0.01112 0.72116 0.59768
 C398 C -0.00414 0.73960 0.60406
 C399 C 0.01274 0.74036 0.61542
 C400 C 0.02265 0.72292 0.62040
 C401 C 0.01555 0.70462 0.61397
 C402 C -0.00135 0.70361 0.60267
 C403 C -0.01504 0.75802 0.59982
 C404 C -0.03572 0.75859 0.60198
 C405 C -0.04629 0.77659 0.60044
 C406 C -0.03553 0.79382 0.59588
 C407 C -0.01487 0.79343 0.59393
 C408 C -0.00470 0.77549 0.59558
 H409 H -0.02419 0.72047 0.58894
 H410 H 0.01782 0.75449 0.62090
 H411 H -0.04307 0.74522 0.60665
 H412 H 0.01131 0.77526 0.59418
 H413 H 0.02356 0.69116 0.61731
 H414 H -0.04308 0.80778 0.59362
 C415 C 0.51102 0.71972 0.40321
 C416 C 0.50734 0.73909 0.39712
 C417 C 0.49222 0.74254 0.38418
 C418 C 0.48078 0.72676 0.37731
 C419 C 0.48445 0.70747 0.38365
 C420 C 0.49949 0.70384 0.39663
 C421 C 0.51982 0.75568 0.40360
 C422 C 0.54050 0.75446 0.40184
 C423 C 0.55252 0.77102 0.40568
 C424 C 0.54363 0.78848 0.41219
 C425 C 0.52297 0.79003 0.41343
 C426 C 0.51109 0.77351 0.40945
 H427 H 0.52282 0.71706 0.41313
 H428 H 0.48972 0.75746 0.37910
 H429 H 0.54697 0.74113 0.39598
 H430 H 0.49507 0.77480 0.41005
 H431 H 0.47508 0.69535 0.37897
 H432 H 0.55274 0.80135 0.41532
 Zr433 Zr 0.01238 -0.02345 1.02519
 O434 O 0.03507 -0.00941 1.04077
 O435 O 0.00883 -0.05002 1.03944
 O436 O 0.00230 -0.01768 1.05252
 O437 O 0.04304 -0.04137 0.99063
 O438 O -0.02626 -0.00015 1.04815
 O439 O 0.03976 -0.03866 1.02204
 O440 O -0.01770 -0.06458 1.02519
 O441 O -0.01851 -0.02690 1.02463
 O442 O 0.00605 -0.04328 1.00358
 O443 O 0.00081 0.00523 1.02139
 O444 O 0.02476 -0.01059 1.00120
 Zr445 Zr -0.02552 -0.00495 0.97365
 Zr446 Zr -0.02996 0.00136 1.01928
 Zr447 Zr 0.01666 -0.02990 0.97957
 Zr448 Zr -0.02464 -0.04587 1.00251
 O449 O 0.04148 -0.01831 0.96521
 O450 O -0.05115 -0.05029 1.01780
 O451 O -0.01414 -0.03392 0.97739
 O452 O -0.03753 -0.01803 0.99764
 O453 O -0.01929 0.01499 0.99526
 O454 O 0.00535 -0.00170 0.97453
 C455 C -0.00416 -0.06387 1.03786
 C456 C 0.04934 -0.04392 1.00730
 C457 C -0.01318 -0.00842 1.05857
 O458 O -0.05646 -0.00967 1.03119
 O459 O -0.05449 0.01633 1.00799
 O460 O -0.05193 0.01186 0.97674
 C461 C -0.06076 0.01879 0.99128
 O462 O 0.03582 0.02475 1.01415
 Zr463 Zr 0.01157 0.01719 0.99661
 O464 O -0.02196 0.02212 0.95974
 O465 O -0.03041 0.03051 1.03033
 O466 O 0.00416 0.04436 1.00984
 O467 O 0.03715 0.02328 0.98046
 O468 O 0.00315 0.03721 0.97573
 C469 C -0.01004 0.03670 0.96282
 O470 O -0.04927 -0.01816 0.95882
 O471 O 0.01883 -0.05984 0.97075
 O472 O -0.01677 -0.01293 0.94638
 O473 O 0.01081 -0.03189 0.95105
 O474 O -0.01714 -0.07395 0.99113
 O475 O -0.04686 -0.05517 0.98340
 C476 C -0.00232 -0.02386 0.94052
 H477 H 0.01225 -0.05647 1.00530
 H478 H -0.05210 -0.01957 0.99651
 H479 H 0.01097 0.00372 0.96291
 H480 H 0.00435 0.01402 1.03193
 H481 H -0.05301 -0.06481 1.01924
 H482 H -0.06205 0.00117 1.03890
 H483 H -0.04263 0.03162 1.03789
 H484 H 0.01189 0.05502 1.00373
 H485 H -0.02510 -0.08408 0.99774
 H486 H 0.03091 -0.06081 0.96298
 H487 H 0.04717 -0.02937 0.95784
 H488 H 0.03874 0.03791 0.97995
 H489 H -0.05305 -0.06762 0.98786
 H490 H -0.05290 -0.00887 0.94872
 H491 H 0.03882 -0.01871 1.05082
 H492 H 0.03998 0.03861 1.01171
 Zr493 Zr 0.51839 0.47019 0.53193
 O494 O 0.54005 0.48191 0.55023
 O495 O 0.51345 0.44218 0.54311
 O496 O 0.50637 0.47328 0.55898
 O497 O 0.55143 0.45554 0.49795
 O498 O 0.47848 0.49181 0.55441
 O499 O 0.54571 0.45482 0.52913
 O500 O 0.48794 0.42973 0.52582
 O501 O 0.48759 0.46739 0.52902
 O502 O 0.51353 0.45301 0.50814
 O503 O 0.50750 0.49936 0.53019
 O504 O 0.53276 0.48543 0.51023
 Zr505 Zr 0.48482 0.49505 0.48013
 Zr506 Zr 0.47694 0.49633 0.52568
 Zr507 Zr 0.52615 0.46878 0.48634
 Zr508 Zr 0.48297 0.45111 0.50480
 O509 O 0.55219 0.48146 0.47496
 O510 O 0.45533 0.44551 0.51783
 O511 O 0.49555 0.46560 0.48177
 O512 O 0.47084 0.47958 0.50184
 O513 O 0.48957 0.51240 0.50390
 O514 O 0.51558 0.49759 0.48334
 C515 C 0.50054 0.42876 0.53927
 C516 C 0.55633 0.45097 0.51464
 C517 C 0.49066 0.48230 0.56485
 O518 O 0.44955 0.48445 0.53481
 O519 O 0.45341 0.51276 0.51436
 O520 O 0.45840 0.51187 0.48312
 C521 C 0.44847 0.51716 0.49764
 O522 O 0.54315 0.51898 0.52727
 Zr523 Zr 0.52027 0.51383 0.50751
 O524 O 0.49025 0.52327 0.46896
 O525 O 0.47592 0.52420 0.53929
 O526 O 0.51223 0.53954 0.52280
 O527 O 0.54713 0.52109 0.49375
 O528 O 0.51376 0.53628 0.48827
 C529 C 0.50201 0.53728 0.47423
 O530 O 0.46200 0.48425 0.46257
 O531 O 0.52864 0.43997 0.47474
 O532 O 0.49528 0.48953 0.45288
 O533 O 0.52254 0.47010 0.45746
 O534 O 0.49099 0.42434 0.49118
 O535 O 0.46216 0.44446 0.48349
 C536 C 0.51008 0.47915 0.44693
 H537 H 0.51942 0.43958 0.50892
 H538 H 0.45638 0.47843 0.49962
 H539 H 0.52215 0.50411 0.47270
 H540 H 0.51033 0.50689 0.54171
 H541 H 0.45316 0.43095 0.51768
 H542 H 0.44347 0.49451 0.54312
 H543 H 0.46318 0.52470 0.54615
 H544 H 0.52059 0.55066 0.51832
 H545 H 0.48238 0.41367 0.49615
 H546 H 0.54133 0.43961 0.46781
 H547 H 0.55829 0.47120 0.46690
 H548 H 0.54894 0.53567 0.49468
 H549 H 0.45545 0.43173 0.48629
 H550 H 0.45935 0.49470 0.45322
 H551 H 0.54288 0.47146 0.55953
 H552 H 0.54781 0.53290 0.52632
 Zr553 Zr 0.48231 1.02560 0.53272
 O554 O 0.46021 1.01477 0.55093
 O555 O 0.48825 1.05340 0.54403
 O556 O 0.49416 1.02210 0.55975
 O557 O 0.44995 1.04132 0.49865
 O558 O 0.52127 1.00240 0.55523
 O559 O 0.45553 1.04194 0.52987
 O560 O 0.51435 1.06483 0.52700
 O561 O 0.51323 1.02704 0.52999
 O562 O 0.48800 1.04260 0.50909
 O563 O 0.49199 0.99599 0.53083
 O564 O 0.46741 1.01103 0.51084
 Zr565 Zr 0.51499 0.99932 0.48091
 Zr566 Zr 0.52268 0.99766 0.52647
 Zr567 Zr 0.47486 1.02740 0.48712
 Zr568 Zr 0.51864 1.04317 0.50595
 O569 O 0.44851 1.01583 0.47522
 O570 O 0.54635 1.04759 0.51932
 O571 O 0.50558 1.02923 0.48275
 O572 O 0.52954 1.01419 0.50280
 O573 O 0.50941 0.98216 0.50452
 O574 O 0.48415 0.99816 0.48396
 C575 C 0.50165 1.06634 0.54032
 C576 C 0.44507 1.04601 0.51534
 C577 C 0.50950 1.01250 0.56564
 O578 O 0.55057 1.00828 0.53577
 O579 O 0.54561 0.98025 0.51512
 O580 O 0.54070 0.98146 0.48387
 C581 C 0.55044 0.97575 0.49834
 O582 O 0.45566 0.97792 0.52779
 Zr583 Zr 0.47865 0.98213 0.50801
 O584 O 0.50813 0.97140 0.46948
 O585 O 0.52240 0.96979 0.53994
 O586 O 0.48569 0.95600 0.52296
 O587 O 0.45141 0.97620 0.49429
 O588 O 0.48384 0.95956 0.48848
 C589 C 0.49556 0.95802 0.47450
 O590 O 0.53838 1.00897 0.46351
 O591 O 0.47350 1.05640 0.47594
 O592 O 0.50504 1.00553 0.45366
 O593 O 0.47878 1.02628 0.45829
 O594 O 0.51186 1.07020 0.49234
 O595 O 0.53994 1.04893 0.48491
 C596 C 0.49089 1.01676 0.44775
 H597 H 0.48262 1.05625 0.50993
 H598 H 0.54404 1.01473 0.50065
 H599 H 0.47733 0.99203 0.47321
 H600 H 0.48881 0.98858 0.54230
 H601 H 0.54913 1.06204 0.51928
 H602 H 0.55613 0.99799 0.54408
 H603 H 0.53509 0.96873 0.54682
 H604 H 0.47682 0.94528 0.51842
 H605 H 0.52084 1.08054 0.49746
 H606 H 0.46090 1.05728 0.46890
 H607 H 0.44292 1.02638 0.46722
 H608 H 0.44884 0.96174 0.49519
 H609 H 0.54714 1.06138 0.48786
 H610 H 0.54052 0.99843 0.45407
 H611 H 0.45775 1.02537 0.56024
 H612 H 0.45051 0.96417 0.52681
 Zr613 Zr -0.01240 0.53373 1.02573
 O614 O -0.03520 0.52219 1.04278
 O615 O -0.00671 0.56097 1.03841
 O616 O -0.00178 0.52890 1.05302
 O617 O -0.04348 0.55089 0.99121
 O618 O 0.02568 0.50964 1.04869
 O619 O -0.03919 0.54993 1.02257
 O620 O 0.01997 0.57306 1.02262
 O621 O 0.01859 0.53547 1.02405
 O622 O -0.00595 0.55170 1.00290
 O623 O -0.00247 0.50426 1.02312
 O624 O -0.02638 0.51995 1.00287
 Zr625 Zr 0.02241 0.50977 0.97417
 Zr626 Zr 0.02836 0.50633 1.01987
 Zr627 Zr -0.01818 0.53728 0.97999
 Zr628 Zr 0.02478 0.55255 1.00074
 O629 O -0.04411 0.52603 0.96705
 O630 O 0.05218 0.55656 1.01476
 O631 O 0.01267 0.53950 0.97667
 O632 O 0.03603 0.52381 0.99701
 O633 O 0.01602 0.49172 0.99701
 O634 O -0.00853 0.50819 0.97612
 C635 C 0.00699 0.57391 1.03574
 C636 C -0.04909 0.55473 1.00789
 C637 C 0.01332 0.51905 1.05907
 O638 O 0.05572 0.51683 1.03053
 O639 O 0.05175 0.48947 1.00867
 O640 O 0.04821 0.49208 0.97734
 C641 C 0.05728 0.48570 0.99194
 O642 O -0.03899 0.48660 1.01785
 Zr643 Zr -0.01484 0.49125 0.99941
 O644 O 0.01715 0.48182 0.96222
 O645 O 0.02785 0.47788 1.03224
 O646 O -0.00879 0.46477 1.01421
 O647 O -0.04104 0.48525 0.98403
 O648 O -0.00782 0.46909 0.97993
 C649 C 0.00500 0.46791 0.96678
 O650 O 0.04607 0.52064 0.95776
 O651 O -0.01920 0.56663 0.96961
 O652 O 0.01298 0.51632 0.94680
 O653 O -0.01338 0.53702 0.95124
 O654 O 0.01819 0.58023 0.98822
 O655 O 0.04648 0.55933 0.98033
 C656 C -0.00108 0.52763 0.94079
 H657 H -0.01141 0.56528 1.00412
 H658 H 0.05060 0.52452 0.99536
 H659 H -0.01480 0.50221 0.96500
 H660 H -0.00607 0.49637 1.03418
 H661 H 0.05490 0.57102 1.01528
 H662 H 0.06111 0.50620 1.03856
 H663 H 0.04026 0.47663 1.03953
 H664 H -0.01739 0.45418 1.00899
 H665 H 0.02705 0.59031 0.99393
 H666 H -0.03153 0.56771 0.96218
 H667 H -0.04952 0.53685 0.95927
 H668 H -0.04337 0.47072 0.98447
 H669 H 0.05353 0.57169 0.98386
 H670 H 0.04883 0.51045 0.94814
 H671 H -0.03803 0.53237 1.05239
 H672 H -0.04420 0.47295 1.01621
 Zr673 Zr -0.01900 0.47075 0.46617
 O674 O -0.04142 0.48060 0.44781
 O675 O -0.01167 0.44328 0.45476
 O676 O -0.00733 0.47479 0.43917
 O677 O -0.05114 0.45424 0.50006
 O678 O 0.01918 0.49535 0.44380
 O679 O -0.04533 0.45361 0.46889
 O680 O 0.01470 0.43306 0.47205
 O681 O 0.01191 0.47037 0.46917
 O682 O -0.01297 0.45403 0.48990
 O683 O -0.01026 0.50069 0.46801
 O684 O -0.03442 0.48496 0.48791
 Zr685 Zr 0.01260 0.49837 0.51810
 Zr686 Zr 0.02042 0.50005 0.47256
 Zr687 Zr -0.02668 0.46893 0.51174
 Zr688 Zr 0.01765 0.45457 0.49335
 O689 O -0.05346 0.47961 0.52341
 O690 O 0.04584 0.45101 0.48071
 O691 O 0.00405 0.46816 0.51638
 O692 O 0.02766 0.48389 0.49636
 O693 O 0.00666 0.51524 0.49438
 O694 O -0.01824 0.49849 0.51482
 C695 C 0.00242 0.43112 0.45843
 C696 C -0.05584 0.44940 0.48335
 C697 C 0.00768 0.48495 0.43333
 O698 O 0.04854 0.49016 0.46332
 O699 O 0.04287 0.51805 0.48393
 O700 O 0.03803 0.51675 0.51518
 C701 C 0.04766 0.52261 0.50069
 O702 O -0.04716 0.51759 0.47085
 Zr703 Zr -0.02407 0.51424 0.49070
 O704 O 0.00499 0.52615 0.52931
 O705 O 0.01951 0.52793 0.45913
 O706 O -0.01777 0.54047 0.47558
 O707 O -0.05149 0.51937 0.50431
 O708 O -0.01951 0.53712 0.51010
 C709 C -0.00791 0.53909 0.52416
 O710 O 0.03603 0.48952 0.53582
 O711 O -0.02717 0.43995 0.52301
 O712 O 0.00252 0.49212 0.54529
 O713 O -0.02310 0.47048 0.54063
 O714 O 0.01137 0.42721 0.50663
 O715 O 0.03860 0.44960 0.51489
 C716 C -0.01141 0.48056 0.55119
 H717 H -0.01791 0.44020 0.48897
 H718 H 0.04216 0.48379 0.49860
 H719 H -0.02531 0.50449 0.52548
 H720 H -0.01362 0.50795 0.45651
 H721 H 0.04909 0.43667 0.48096
 H722 H 0.05388 0.50059 0.45503
 H723 H 0.03216 0.52933 0.45225
 H724 H -0.02693 0.55094 0.48005
 H725 H 0.02078 0.41724 0.50165
 H726 H -0.03979 0.43865 0.52995
 H727 H -0.05879 0.46889 0.53139
 H728 H -0.05444 0.53376 0.50338
 H729 H 0.04607 0.43725 0.51226
 H730 H 0.03782 0.50021 0.54520
 H731 H -0.04344 0.46990 0.43849
 H732 H -0.05272 0.53116 0.47176
 Zr733 Zr 0.47723 -0.02387 -0.03110
 O734 O 0.45505 -0.01317 -0.04929
 O735 O 0.48368 -0.05138 -0.04282
 O736 O 0.48905 -0.01973 -0.05805
 O737 O 0.44486 -0.04025 0.00267
 O738 O 0.51589 0.00035 -0.05317
 O739 O 0.45055 -0.04050 -0.02853
 O740 O 0.50978 -0.06258 -0.02570
 O741 O 0.50814 -0.02489 -0.02823
 O742 O 0.48302 -0.04110 -0.00764
 O743 O 0.48656 0.00587 -0.02881
 O744 O 0.46215 -0.00978 -0.00909
 Zr745 Zr 0.50950 0.00222 0.02115
 Zr746 Zr 0.51725 0.00457 -0.02436
 Zr747 Zr 0.46969 -0.02635 0.01447
 Zr748 Zr 0.51364 -0.04124 -0.00433
 O749 O 0.44323 -0.01534 0.02652
 O750 O 0.54152 -0.04510 -0.01748
 O751 O 0.50040 -0.02778 0.01896
 O752 O 0.52424 -0.01216 -0.00084
 O753 O 0.50379 0.01962 -0.00228
 O754 O 0.47866 0.00298 0.01800
 C755 C 0.49730 -0.06409 -0.03921
 C756 C 0.44002 -0.04473 -0.01409
 C757 C 0.50424 -0.00975 -0.06376
 O758 O 0.54519 -0.00563 -0.03376
 O759 O 0.54003 0.02204 -0.01274
 O760 O 0.53511 0.02040 0.01848
 C761 C 0.54483 0.02635 0.00408
 O762 O 0.45003 0.02338 -0.02568
 Zr763 Zr 0.47304 0.01925 -0.00588
 O764 O 0.50232 0.02991 0.03285
 O765 O 0.51678 0.03266 -0.03742
 O766 O 0.47985 0.04565 -0.02054
 O767 O 0.44570 0.02461 0.00780
 O768 O 0.47794 0.04164 0.01391
 C769 C 0.48963 0.04317 0.02793
 O770 O 0.53292 -0.00731 0.03857
 O771 O 0.46858 -0.05555 0.02521
 O772 O 0.49953 -0.00448 0.04828
 O773 O 0.47353 -0.02557 0.04334
 O774 O 0.50703 -0.06856 0.00887
 O775 O 0.53485 -0.04701 0.01681
 C776 C 0.48549 -0.01599 0.05403
 H777 H 0.47777 -0.05480 -0.00870
 H778 H 0.53874 -0.01254 0.00136
 H779 H 0.47174 0.00888 0.02880
 H780 H 0.48332 0.01339 -0.04020
 H781 H 0.54445 -0.05952 -0.01758
 H782 H 0.55071 0.00486 -0.04190
 H783 H 0.52947 0.03397 -0.04425
 H784 H 0.47087 0.05620 -0.01591
 H785 H 0.51612 -0.07871 0.00367
 H786 H 0.45596 -0.05671 0.03218
 H787 H 0.43772 -0.02611 0.03433
 H788 H 0.44298 0.03905 0.00706
 H789 H 0.54214 -0.05936 0.01380
 H790 H 0.53494 0.00315 0.04812
 H791 H 0.45276 -0.02367 -0.05874
 H792 H 0.44476 0.03706 -0.02459
 Zr793 Zr 0.51984 0.52712 -0.03066
 O794 O 0.54278 0.51527 -0.04738
 O795 O 0.51384 0.55379 -0.04403
 O796 O 0.50918 0.52143 -0.05785
 O797 O 0.55065 0.54580 0.00351
 O798 O 0.48202 0.50181 -0.05313
 O799 O 0.54642 0.54388 -0.02784
 O800 O 0.48692 0.56589 -0.02862
 O801 O 0.48885 0.52842 -0.02903
 O802 O 0.51314 0.54577 -0.00828
 O803 O 0.51026 0.49759 -0.02741
 O804 O 0.53388 0.51430 -0.00747
 Zr805 Zr 0.48517 0.50433 0.02138
 Zr806 Zr 0.47942 0.49929 -0.02424
 Zr807 Zr 0.52544 0.53231 0.01498
 Zr808 Zr 0.48240 0.54620 -0.00615
 O809 O 0.55150 0.52202 0.02824
 O810 O 0.45492 0.54935 -0.02019
 O811 O 0.49457 0.53413 0.01823
 O812 O 0.47150 0.51742 -0.00181
 O813 O 0.49178 0.48552 -0.00098
 O814 O 0.51612 0.50325 0.01944
 C815 C 0.49989 0.56650 -0.04176
 C816 C 0.55625 0.54920 -0.01324
 C817 C 0.49415 0.51124 -0.06369
 O818 O 0.45198 0.50900 -0.03523
 O819 O 0.45608 0.48268 -0.01278
 O820 O 0.45947 0.48627 0.01850
 C821 C 0.45041 0.47949 0.00399
 O822 O 0.54650 0.48006 -0.02197
 Zr823 Zr 0.52265 0.48553 -0.00337
 O824 O 0.49136 0.47726 0.03453
 O825 O 0.48031 0.47044 -0.03594
 O826 O 0.51635 0.45831 -0.01706
 O827 O 0.54931 0.48085 0.01165
 O828 O 0.51660 0.46440 0.01725
 C829 C 0.50422 0.46372 0.03080
 O830 O 0.46126 0.51524 0.03747
 O831 O 0.52598 0.56202 0.02465
 O832 O 0.49434 0.51214 0.04857
 O833 O 0.52066 0.53284 0.04375
 O834 O 0.48872 0.57442 0.00563
 O835 O 0.46064 0.55337 0.01411
 C836 C 0.50837 0.52369 0.05438
 H837 H 0.51844 0.55939 -0.00982
 H838 H 0.45692 0.51801 -0.00021
 H839 H 0.52257 0.49790 0.03070
 H840 H 0.51394 0.48939 -0.03830
 H841 H 0.45205 0.56375 -0.02104
 H842 H 0.44675 0.49804 -0.04306
 H843 H 0.46794 0.46877 -0.04323
 H844 H 0.52500 0.44801 -0.01153
 H845 H 0.47979 0.58416 -0.00037
 H846 H 0.53831 0.56360 0.03202
 H847 H 0.55673 0.53319 0.03579
 H848 H 0.55189 0.46636 0.01176
 H849 H 0.45353 0.56557 0.01034
 H850 H 0.45869 0.50537 0.04737
 H851 H 0.54551 0.52515 -0.05724
 H852 H 0.55165 0.46647 -0.02000
 Zr853 Zr 0.01973 1.02224 0.46640
 O854 O 0.04186 1.01155 0.44812
 O855 O 0.01315 1.04968 0.45483
 O856 O 0.00772 1.01819 0.43947
 O857 O 0.05203 1.03917 0.50015
 O858 O -0.01902 0.99800 0.44426
 O859 O 0.04629 1.03909 0.46896
 O860 O -0.01312 1.06069 0.47188
 O861 O -0.01117 1.02311 0.46935
 O862 O 0.01394 1.03952 0.48993
 O863 O 0.01055 0.99247 0.46851
 O864 O 0.03499 1.00830 0.48829
 Zr865 Zr -0.01214 0.99610 0.51859
 Zr866 Zr -0.02012 0.99361 0.47307
 Zr867 Zr 0.02746 1.02491 0.51194
 Zr868 Zr -0.01667 1.03950 0.49331
 O869 O 0.05416 1.01417 0.52370
 O870 O -0.04468 1.04314 0.48035
 O871 O -0.00324 1.02617 0.51653
 O872 O -0.02706 1.01036 0.49669
 O873 O -0.00648 0.97866 0.49506
 O874 O 0.01869 0.99555 0.51529
 C875 C -0.00064 1.06224 0.45839
 C876 C 0.05678 1.04359 0.48340
 C877 C -0.00752 1.00826 0.43373
 O878 O -0.04820 1.00357 0.46382
 O879 O -0.04275 0.97606 0.48468
 O880 O -0.03768 0.97782 0.51589
 C881 C -0.04748 0.97182 0.50150
 O882 O 0.04707 0.97507 0.47137
 Zr883 Zr 0.02425 0.97922 0.49134
 O884 O -0.00451 0.96862 0.53031
 O885 O -0.01951 0.96554 0.45982
 O886 O 0.01727 0.95271 0.47675
 O887 O 0.05181 0.97403 0.50471
 O888 O 0.01985 0.95699 0.51126
 C889 C 0.00843 0.95555 0.52547
 O890 O -0.03552 1.00555 0.53611
 O891 O 0.02826 1.05409 0.52295
 O892 O -0.00202 1.00284 0.54573
 O893 O 0.02395 1.02394 0.54085
 O894 O -0.01013 1.06696 0.50647
 O895 O -0.03773 1.04522 0.51459
 C896 C 0.01210 1.01428 0.55152
 H897 H 0.01907 1.05326 0.48891
 H898 H -0.04155 1.01067 0.49894
 H899 H 0.02576 0.98976 0.52602
 H900 H 0.01376 0.98497 0.45706
 H901 H -0.04770 1.05754 0.48030
 H902 H -0.05367 0.99304 0.45563
 H903 H -0.03222 0.96415 0.45301
 H904 H 0.02630 0.94220 0.48131
 H905 H -0.01932 1.07701 0.50130
 H906 H 0.04091 1.05539 0.52986
 H907 H 0.05964 1.02498 0.53155
 H908 H 0.05462 0.95961 0.50383
 H909 H -0.04509 1.05755 0.51168
 H910 H -0.03740 0.99511 0.54565
 H911 H 0.04408 1.02203 0.43871
 H912 H 0.05221 0.96134 0.47222
 Zr913 Zr 0.72051 0.26807 0.22085
 O914 O 0.73246 0.29186 0.20532
 O915 O 0.69465 0.26186 0.20617
 O916 O 0.72702 0.25828 0.19354
 O917 O 0.69917 0.29655 0.25538
 O918 O 0.74725 0.23155 0.19791
 O919 O 0.70313 0.29419 0.22405
 O920 O 0.68438 0.23255 0.21865
 O921 O 0.72030 0.23699 0.22132
 O922 O 0.70107 0.25970 0.24205
 O923 O 0.75018 0.25938 0.22484
 O924 O 0.73179 0.28152 0.24511
 Zr925 Zr 0.74212 0.23201 0.27231
 Zr926 Zr 0.74944 0.22833 0.22681
 Zr927 Zr 0.71309 0.27143 0.26639
 Zr928 Zr 0.70169 0.22886 0.24296
 O929 O 0.72166 0.29741 0.28099
 O930 O 0.70002 0.20117 0.22891
 O931 O 0.71218 0.24038 0.26835
 O932 O 0.73060 0.21881 0.24809
 O933 O 0.76167 0.24023 0.25108
 O934 O 0.74226 0.26305 0.27160
 C935 C 0.68365 0.24630 0.20623
 C936 C 0.69668 0.30305 0.23880
 C937 C 0.73745 0.24354 0.18750
 O938 O 0.74135 0.20078 0.21474
 O939 O 0.76662 0.20534 0.23820
 O940 O 0.76117 0.20718 0.26934
 C941 C 0.76913 0.19909 0.25489
 O942 O 0.76581 0.29614 0.23252
 Zr943 Zr 0.76073 0.27118 0.24986
 O944 O 0.76837 0.23847 0.28672
 O945 O 0.77848 0.23102 0.21596
 O946 O 0.78860 0.26642 0.23696
 O947 O 0.76426 0.29727 0.26611
 O948 O 0.78121 0.26491 0.27108
 C949 C 0.78173 0.25182 0.28403
 O950 O 0.73118 0.20711 0.28698
 O951 O 0.68306 0.27006 0.27484
 O952 O 0.73331 0.23990 0.29951
 O953 O 0.71194 0.26567 0.29501
 O954 O 0.67234 0.23411 0.25236
 O955 O 0.69397 0.20679 0.26270
 C956 C 0.72132 0.25341 0.30549
 H957 H 0.68740 0.26458 0.23998
 H958 H 0.73049 0.20415 0.24918
 H959 H 0.74699 0.26924 0.28326
 H960 H 0.75861 0.26378 0.21438
 H961 H 0.68577 0.19790 0.22730
 H962 H 0.75276 0.19631 0.20714
 H963 H 0.78087 0.21898 0.20834
 H964 H 0.79838 0.27517 0.24324
 H965 H 0.66351 0.22499 0.24536
 H966 H 0.68062 0.28198 0.28259
 H967 H 0.70998 0.30182 0.28827
 H968 H 0.77864 0.30038 0.26659
 H969 H 0.68186 0.19971 0.25853
 H970 H 0.74067 0.20440 0.29718
 H971 H 0.72290 0.29465 0.19519
 H972 H 0.77933 0.30141 0.23479
 Zr973 Zr 0.77950 0.73946 0.72251
 O974 O 0.76787 0.71579 0.70643
 O975 O 0.80517 0.74646 0.70789
 O976 O 0.77255 0.74956 0.69545
 O977 O 0.80090 0.71028 0.75635
 O978 O 0.75227 0.77613 0.70052
 O979 O 0.79718 0.71347 0.72506
 O980 O 0.81565 0.77514 0.72165
 O981 O 0.77952 0.77052 0.72381
 O982 O 0.79884 0.74744 0.74400
 O983 O 0.74978 0.74785 0.72671
 O984 O 0.76827 0.72538 0.74638
 Zr985 Zr 0.75761 0.77416 0.77491
 Zr986 Zr 0.75032 0.77883 0.72949
 Zr987 Zr 0.78686 0.73507 0.76799
 Zr988 Zr 0.79803 0.77825 0.74577
 O989 O 0.77840 0.70871 0.78187
 O990 O 0.79956 0.80617 0.73230
 O991 O 0.78760 0.76606 0.77081
 O992 O 0.76906 0.78799 0.75107
 O993 O 0.73815 0.76632 0.75341
 O994 O 0.75764 0.74315 0.77337
 C995 C 0.81633 0.76190 0.70869
 C996 C 0.80355 0.70425 0.73960
 C997 C 0.76191 0.76429 0.68978
 O998 O 0.75834 0.80662 0.71803
 O999 O 0.73310 0.80151 0.74144
 O1000 O 0.73850 0.79900 0.77255
 C1001 C 0.73055 0.80738 0.75827
 O1002 O 0.73431 0.71078 0.73344
 Zr1003 Zr 0.73926 0.73541 0.75138
 O1004 O 0.73131 0.76735 0.78899
 O1005 O 0.72123 0.77631 0.71866
 O1006 O 0.71140 0.74022 0.73848
 O1007 O 0.73593 0.70898 0.76701
 O1008 O 0.71866 0.74119 0.77264
 C1009 C 0.71801 0.75404 0.78587
 O1010 O 0.76844 0.79873 0.79030
 O1011 O 0.81689 0.73637 0.77653
 O1012 O 0.76640 0.76563 0.80192
 O1013 O 0.78798 0.74015 0.79675
 O1014 O 0.82732 0.77302 0.75534
 O1015 O 0.80545 0.80001 0.76605
 C1016 C 0.77850 0.75207 0.80755
 H1017 H 0.81256 0.74272 0.74183
 H1018 H 0.76910 0.80262 0.75252
 H1019 H 0.75292 0.73668 0.78486
 H1020 H 0.74135 0.74361 0.71615
 H1021 H 0.81378 0.80961 0.73089
 H1022 H 0.74687 0.81122 0.71058
 H1023 H 0.71876 0.78850 0.71135
 H1024 H 0.70165 0.73131 0.74453
 H1025 H 0.83615 0.78239 0.74870
 H1026 H 0.81939 0.72425 0.78394
 H1027 H 0.79009 0.70418 0.78905
 H1028 H 0.72157 0.70582 0.76748
 H1029 H 0.81749 0.80731 0.76209
 H1030 H 0.75891 0.80115 0.80055
 H1031 H 0.77745 0.71333 0.69624
 H1032 H 0.72087 0.70531 0.73566
 Zr1033 Zr 0.22030 0.22832 0.78069
 O1034 O 0.23321 0.20680 0.79827
 O1035 O 0.19245 0.23195 0.79267
 O1036 O 0.22385 0.24007 0.80788
 O1037 O 0.20584 0.19530 0.74640
 O1038 O 0.24147 0.26862 0.80327
 O1039 O 0.20572 0.20046 0.77771
 O1040 O 0.17860 0.25700 0.77590
 O1041 O 0.21647 0.25909 0.77844
 O1042 O 0.20237 0.23297 0.75741
 O1043 O 0.24904 0.24027 0.77829
 O1044 O 0.23535 0.21485 0.75829
 Zr1045 Zr 0.24253 0.26364 0.72885
 Zr1046 Zr 0.24495 0.27083 0.77447
 Zr1047 Zr 0.21787 0.22126 0.73497
 Zr1048 Zr 0.19939 0.26351 0.75474
 O1049 O 0.23115 0.19595 0.72272
 O1050 O 0.19326 0.29053 0.76879
 O1051 O 0.21355 0.25182 0.73109
 O1052 O 0.22733 0.27676 0.75124
 O1053 O 0.26067 0.25907 0.75203
 O1054 O 0.24621 0.23293 0.73133
 C1055 C 0.17838 0.24418 0.78916
 C1056 C 0.20185 0.18994 0.76310
 C1057 C 0.23269 0.25594 0.81376
 O1058 O 0.23250 0.29767 0.78439
 O1059 O 0.26053 0.29501 0.76311
 O1060 O 0.25882 0.29043 0.73183
 C1061 C 0.26443 0.30024 0.74634
 O1062 O 0.26957 0.20513 0.77394
 Zr1063 Zr 0.26323 0.22837 0.75498
 O1064 O 0.27068 0.25983 0.71704
 O1065 O 0.27312 0.27261 0.78737
 O1066 O 0.28898 0.23694 0.76995
 O1067 O 0.27108 0.20220 0.74029
 O1068 O 0.28497 0.23638 0.73546
 C1069 C 0.28530 0.24874 0.72190
 O1070 O 0.23042 0.28639 0.71212
 O1071 O 0.18886 0.21776 0.72413
 O1072 O 0.23663 0.25345 0.70157
 O1073 O 0.21807 0.22553 0.70616
 O1074 O 0.17262 0.25497 0.74142
 O1075 O 0.19154 0.28467 0.73420
 C1076 C 0.22643 0.23846 0.69563
 H1077 H 0.18918 0.22656 0.75838
 H1078 H 0.22570 0.29122 0.74933
 H1079 H 0.25267 0.22685 0.72038
 H1080 H 0.25699 0.23750 0.78954
 H1081 H 0.17865 0.29214 0.76909
 H1082 H 0.24263 0.30401 0.79245
 H1083 H 0.27345 0.28529 0.79439
 H1084 H 0.30026 0.22916 0.76497
 H1085 H 0.16180 0.26309 0.74681
 H1086 H 0.18879 0.20523 0.71688
 H1087 H 0.22091 0.18962 0.71476
 H1088 H 0.28573 0.20096 0.74083
 H1089 H 0.17879 0.29100 0.73761
 H1090 H 0.24048 0.28963 0.70255
 H1091 H 0.22312 0.20345 0.80777
 H1092 H 0.28361 0.20105 0.77258
 Zr1093 Zr 0.28357 0.76187 0.28080
 O1094 O 0.27483 0.78252 0.30142
 O1095 O 0.31257 0.75528 0.28903
 O1096 O 0.28191 0.74842 0.30738
 O1097 O 0.29488 0.79740 0.24793
 O1098 O 0.26264 0.72104 0.30235
 O1099 O 0.29914 0.78922 0.27836
 O1100 O 0.32255 0.73166 0.26835
 O1101 O 0.28525 0.73127 0.27559
 O1102 O 0.29791 0.75859 0.25525
 O1103 O 0.25404 0.75163 0.28072
 O1104 O 0.26642 0.77806 0.26155
 Zr1105 Zr 0.25251 0.73266 0.22921
 Zr1106 Zr 0.25581 0.72140 0.27402
 Zr1107 Zr 0.28022 0.77309 0.23589
 Zr1108 Zr 0.29865 0.72831 0.24967
 O1109 O 0.26679 0.79992 0.22727
 O1110 O 0.30501 0.69980 0.26056
 O1111 O 0.28218 0.74286 0.22901
 O1112 O 0.26978 0.71682 0.24846
 O1113 O 0.23793 0.73590 0.25467
 O1114 O 0.25096 0.76317 0.23458
 C1115 C 0.32537 0.74293 0.28259
 C1116 C 0.30137 0.80099 0.26439
 C1117 C 0.27277 0.73264 0.31295
 O1118 O 0.26812 0.69336 0.28045
 O1119 O 0.23782 0.69890 0.26264
 O1120 O 0.23559 0.70625 0.23189
 C1121 C 0.23160 0.69530 0.24608
 O1122 O 0.23527 0.78811 0.28165
 Zr1123 Zr 0.23757 0.76630 0.26038
 O1124 O 0.22318 0.73883 0.22140
 O1125 O 0.22927 0.71959 0.28961
 O1126 O 0.21360 0.75794 0.27776
 O1127 O 0.22941 0.79395 0.24863
 O1128 O 0.21277 0.76086 0.24339
 C1129 C 0.20988 0.74982 0.22905
 O1130 O 0.26073 0.71107 0.20924
 O1131 O 0.30781 0.77644 0.22221
 O1132 O 0.25576 0.74491 0.20233
 O1133 O 0.27632 0.77137 0.20710
 O1134 O 0.32379 0.73685 0.23389
 O1135 O 0.30234 0.70885 0.22666
 C1136 C 0.26619 0.75975 0.19652
 H1137 H 0.31147 0.76426 0.25518
 H1138 H 0.27036 0.70253 0.24522
 H1139 H 0.24347 0.77047 0.22496
 H1140 H 0.24770 0.75379 0.29294
 H1141 H 0.31940 0.69740 0.25885
 H1142 H 0.25876 0.68675 0.28907
 H1143 H 0.22915 0.70637 0.29561
 H1144 H 0.20228 0.76679 0.27488
 H1145 H 0.33475 0.72767 0.23707
 H1146 H 0.30759 0.78959 0.21608
 H1147 H 0.27623 0.80649 0.21872
 H1148 H 0.21503 0.79583 0.25091
 H1149 H 0.31503 0.70159 0.22794
 H1150 H 0.24927 0.70930 0.20074
 H1151 H 0.28636 0.78443 0.30982
 H1152 H 0.22154 0.79332 0.28204
 Zr1153 Zr 0.21684 0.75560 0.72490
 O1154 O 0.22575 0.77825 0.70637
 O1155 O 0.18922 0.74755 0.71406
 O1156 O 0.22098 0.74414 0.69774
 O1157 O 0.20009 0.78725 0.75930
 O1158 O 0.24225 0.71822 0.70199
 O1159 O 0.19940 0.78168 0.72809
 O1160 O 0.17980 0.72124 0.73183
 O1161 O 0.21720 0.72465 0.72779
 O1162 O 0.20076 0.74915 0.74895
 O1163 O 0.24699 0.74765 0.72630
 O1164 O 0.23110 0.77140 0.74647
 Zr1165 Zr 0.24599 0.72470 0.77630
 Zr1166 Zr 0.24710 0.71692 0.73069
 Zr1167 Zr 0.21571 0.76326 0.77056
 Zr1168 Zr 0.20203 0.71853 0.75229
 O1169 O 0.22619 0.79029 0.78206
 O1170 O 0.19881 0.69041 0.73927
 O1171 O 0.21565 0.73252 0.77512
 O1172 O 0.23154 0.70924 0.75474
 O1173 O 0.26227 0.73110 0.75231
 O1174 O 0.24549 0.75557 0.77321
 C1175 C 0.17723 0.73342 0.71831
 C1176 C 0.19499 0.79196 0.74270
 C1177 C 0.23159 0.72953 0.69168
 O1178 O 0.23761 0.68861 0.72136
 O1179 O 0.26573 0.69488 0.74172
 O1180 O 0.26474 0.69967 0.77301
 C1181 C 0.27062 0.69021 0.75841
 O1182 O 0.26284 0.78532 0.72932
 Zr1183 Zr 0.26062 0.76181 0.74882
 O1184 O 0.27406 0.73242 0.78664
 O1185 O 0.27481 0.71849 0.71698
 O1186 O 0.28651 0.75656 0.73283
 O1187 O 0.26567 0.78909 0.76287
 O1188 O 0.28423 0.75720 0.76737
 C1189 C 0.28688 0.74522 0.78100
 O1190 O 0.23780 0.70118 0.79417
 O1191 O 0.18696 0.76325 0.78238
 O1192 O 0.24014 0.73477 0.80365
 O1193 O 0.21757 0.75955 0.79935
 O1194 O 0.17497 0.72399 0.76642
 O1195 O 0.19800 0.69722 0.77365
 C1196 C 0.22813 0.74823 0.80973
 H1197 H 0.18683 0.75376 0.74835
 H1198 H 0.23178 0.69473 0.75690
 H1199 H 0.25162 0.76269 0.78381
 H1200 H 0.25401 0.75123 0.71473
 H1201 H 0.18456 0.68677 0.73978
 H1202 H 0.24808 0.68350 0.71297
 H1203 H 0.27641 0.70588 0.71003
 H1204 H 0.29686 0.76597 0.73717
 H1205 H 0.16507 0.71431 0.76169
 H1206 H 0.18562 0.77581 0.78946
 H1207 H 0.21558 0.79539 0.79030
 H1208 H 0.27997 0.79230 0.76166
 H1209 H 0.18588 0.68933 0.77110
 H1210 H 0.24870 0.69957 0.80331
 H1211 H 0.21480 0.78000 0.69731
 H1212 H 0.27622 0.79136 0.73007
 Zr1213 Zr 0.28297 0.23633 0.21894
 O1214 O 0.27422 0.21500 0.19889
 O1215 O 0.31170 0.24329 0.21014
 O1216 O 0.28069 0.24911 0.19213
 O1217 O 0.29542 0.20192 0.25244
 O1218 O 0.26076 0.27602 0.19673
 O1219 O 0.29902 0.20935 0.22177
 O1220 O 0.32150 0.26780 0.23003
 O1221 O 0.28407 0.26709 0.22338
 O1222 O 0.29774 0.24068 0.24417
 O1223 O 0.25323 0.24581 0.21925
 O1224 O 0.26655 0.22029 0.23886
 Zr1225 Zr 0.25228 0.26622 0.27032
 Zr1226 Zr 0.25444 0.27625 0.22518
 Zr1227 Zr 0.28074 0.22633 0.26415
 Zr1228 Zr 0.29790 0.27112 0.24900
 O1229 O 0.26805 0.19951 0.27382
 O1230 O 0.30346 0.29944 0.23729
 O1231 O 0.28217 0.25677 0.27027
 O1232 O 0.26882 0.28191 0.25039
 O1233 O 0.23725 0.26189 0.24519
 O1234 O 0.25132 0.23555 0.26572
 C1235 C 0.32433 0.25615 0.21608
 C1236 C 0.30161 0.19798 0.23597
 C1237 C 0.27112 0.26450 0.18631
 O1238 O 0.26598 0.30441 0.21785
 O1239 O 0.23623 0.29864 0.23628
 O1240 O 0.23478 0.29216 0.26724
 C1241 C 0.23031 0.30261 0.25284
 O1242 O 0.23513 0.20899 0.21944
 Zr1243 Zr 0.23748 0.23133 0.24023
 O1244 O 0.22332 0.25934 0.27887
 O1245 O 0.22758 0.27690 0.20997
 O1246 O 0.21293 0.23872 0.22317
 O1247 O 0.23033 0.20372 0.25266
 O1248 O 0.21299 0.23638 0.25763
 C1249 C 0.21017 0.24767 0.27181
 O1250 O 0.26027 0.28864 0.28961
 O1251 O 0.30874 0.22397 0.27731
 O1252 O 0.25656 0.25492 0.29746
 O1253 O 0.27759 0.22886 0.29296
 O1254 O 0.32351 0.26365 0.26460
 O1255 O 0.30163 0.29135 0.27143
 C1256 C 0.26751 0.24057 0.30344
 H1257 H 0.31141 0.23530 0.24416
 H1258 H 0.26917 0.29629 0.25326
 H1259 H 0.24424 0.22832 0.27566
 H1260 H 0.24671 0.24316 0.20718
 H1261 H 0.31782 0.30225 0.23871
 H1262 H 0.25631 0.31052 0.20923
 H1263 H 0.22704 0.28993 0.20363
 H1264 H 0.20186 0.22968 0.22645
 H1265 H 0.33423 0.27297 0.26099
 H1266 H 0.30897 0.21097 0.28371
 H1267 H 0.27785 0.19340 0.28232
 H1268 H 0.21596 0.20137 0.25070
 H1269 H 0.31418 0.29883 0.26979
 H1270 H 0.24894 0.29030 0.29826
 H1271 H 0.28562 0.21313 0.19036
 H1272 H 0.22149 0.20347 0.21941
 Zr1273 Zr 0.72476 0.73744 0.27690
 O1274 O 0.73806 0.71450 0.29255
 O1275 O 0.69891 0.74263 0.29183
 O1276 O 0.73128 0.74803 0.30398
 O1277 O 0.70442 0.70712 0.24311
 O1278 O 0.75005 0.77573 0.29890
 O1279 O 0.70830 0.71060 0.27439
 O1280 O 0.68652 0.77064 0.27852
 O1281 O 0.72297 0.76845 0.27592
 O1282 O 0.70469 0.74433 0.25574
 O1283 O 0.75390 0.74759 0.27240
 O1284 O 0.73639 0.72409 0.25277
 Zr1285 Zr 0.74386 0.77353 0.22457
 Zr1286 Zr 0.75158 0.77849 0.26993
 Zr1287 Zr 0.71695 0.73272 0.23150
 Zr1288 Zr 0.70373 0.77513 0.25430
 O1289 O 0.72668 0.70694 0.21730
 O1290 O 0.70093 0.80277 0.26825
 O1291 O 0.71444 0.76364 0.22900
 O1292 O 0.73204 0.78660 0.24868
 O1293 O 0.76406 0.76679 0.24573
 O1294 O 0.74557 0.74256 0.22580
 C1295 C 0.68676 0.75725 0.29129
 C1296 C 0.70219 0.70105 0.25987
 C1297 C 0.74112 0.76339 0.30965
 O1298 O 0.74231 0.80583 0.28161
 O1299 O 0.76752 0.80205 0.25797
 O1300 O 0.76190 0.79927 0.22690
 C1301 C 0.76966 0.80801 0.24114
 O1302 O 0.77148 0.71163 0.26518
 Zr1303 Zr 0.76471 0.73587 0.24746
 O1304 O 0.77015 0.76822 0.20991
 O1305 O 0.78086 0.77758 0.28052
 O1306 O 0.79249 0.74246 0.25990
 O1307 O 0.76920 0.70963 0.23167
 O1308 O 0.78450 0.74279 0.22582
 C1309 C 0.78416 0.75562 0.21263
 O1310 O 0.73150 0.79757 0.20968
 O1311 O 0.68678 0.73223 0.22332
 O1312 O 0.73507 0.76462 0.19760
 O1313 O 0.71511 0.73782 0.20280
 O1314 O 0.67466 0.76831 0.24491
 O1315 O 0.69481 0.79661 0.23445
 C1316 C 0.72370 0.75035 0.19200
 H1317 H 0.69128 0.73882 0.25800
 H1318 H 0.73121 0.80121 0.24736
 H1319 H 0.75042 0.73639 0.21419
 H1320 H 0.76269 0.74384 0.28283
 H1321 H 0.68657 0.80533 0.26996
 H1322 H 0.75360 0.81105 0.28900
 H1323 H 0.78277 0.78989 0.28788
 H1324 H 0.80263 0.73419 0.25362
 H1325 H 0.66541 0.77706 0.25179
 H1326 H 0.68487 0.72003 0.21581
 H1327 H 0.71516 0.70173 0.21022
 H1328 H 0.78371 0.70733 0.23092
 H1329 H 0.68253 0.80325 0.23875
 H1330 H 0.74070 0.80057 0.19932
 H1331 H 0.72883 0.71142 0.30286
 H1332 H 0.78518 0.70704 0.26271
 Zr1333 Zr 0.77831 0.27014 0.78133
 O1334 O 0.76488 0.29253 0.79769
 O1335 O 0.80546 0.26666 0.79462
 O1336 O 0.77347 0.25957 0.80869
 O1337 O 0.79483 0.30144 0.74669
 O1338 O 0.75570 0.23104 0.80425
 O1339 O 0.79332 0.29769 0.77811
 O1340 O 0.81966 0.24054 0.77949
 O1341 O 0.78183 0.23925 0.78019
 O1342 O 0.79726 0.26430 0.75900
 O1343 O 0.74956 0.25842 0.77816
 O1344 O 0.76452 0.28282 0.75792
 Zr1345 Zr 0.75798 0.23292 0.72978
 Zr1346 Zr 0.75342 0.22767 0.77542
 Zr1347 Zr 0.78295 0.27518 0.73555
 Zr1348 Zr 0.79995 0.23363 0.75741
 O1349 O 0.77071 0.30023 0.72208
 O1350 O 0.80507 0.20700 0.77228
 O1351 O 0.78702 0.24444 0.73281
 O1352 O 0.77201 0.22058 0.75314
 O1353 O 0.73887 0.23868 0.75203
 O1354 O 0.75462 0.26376 0.73120
 C1355 C 0.81940 0.25396 0.79233
 C1356 C 0.79802 0.30751 0.76336
 C1357 C 0.76423 0.24402 0.81469
 O1358 O 0.76505 0.20111 0.78663
 O1359 O 0.73809 0.20319 0.76414
 O1360 O 0.74134 0.20642 0.73285
 C1361 C 0.73496 0.19729 0.74739
 O1362 O 0.72984 0.29358 0.77201
 Zr1363 Zr 0.73662 0.26952 0.75396
 O1364 O 0.73038 0.23650 0.71678
 O1365 O 0.72468 0.22675 0.78720
 O1366 O 0.71007 0.26186 0.76801
 O1367 O 0.72977 0.29522 0.73829
 O1368 O 0.71574 0.26110 0.73373
 C1369 C 0.71580 0.24812 0.72060
 O1370 O 0.77066 0.20944 0.71422
 O1371 O 0.81245 0.27763 0.72575
 O1372 O 0.76487 0.24200 0.70246
 O1373 O 0.78362 0.26986 0.70683
 O1374 O 0.82748 0.24146 0.74518
 O1375 O 0.80854 0.21164 0.73779
 C1376 C 0.77533 0.25669 0.69641
 H1377 H 0.81048 0.27057 0.76038
 H1378 H 0.77354 0.20603 0.75172
 H1379 H 0.74870 0.26949 0.71985
 H1380 H 0.74116 0.26175 0.78899
 H1381 H 0.81963 0.20524 0.77326
 H1382 H 0.75451 0.19528 0.79452
 H1383 H 0.72388 0.21437 0.79458
 H1384 H 0.69916 0.26964 0.76237
 H1385 H 0.83792 0.23348 0.75134
 H1386 H 0.81309 0.28990 0.71821
 H1387 H 0.78141 0.30609 0.71441
 H1388 H 0.71513 0.29670 0.73828
 H1389 H 0.82116 0.20548 0.74180
 H1390 H 0.76103 0.20589 0.70433
 H1391 H 0.77458 0.29619 0.80749
 H1392 H 0.71590 0.29773 0.77006
 C1393 C 0.45284 1.02327 0.33784
 C1394 C 0.45785 1.01020 0.32354
 C1395 C 0.44793 1.01109 0.30651
 C1396 C 0.43261 1.02511 0.30337
 C1397 C 0.42802 1.03838 0.31801
 C1398 C 0.43799 1.03740 0.33500
 C1399 C 0.46238 1.02187 0.35569
 C1400 C 0.46958 1.02104 0.37100
 C1401 C 0.47693 1.02070 0.38977
 C1402 C 0.48905 1.00522 0.39612
 C1403 C 0.49444 1.00426 0.41490
 C1404 C 0.48757 1.01869 0.42751
 C1405 C 0.47598 1.03450 0.42079
 C1406 C 0.47073 1.03547 0.40211
 H1407 H 0.46944 0.99928 0.32553
 H1408 H 0.45289 1.00110 0.29571
 H1409 H 0.41606 1.04900 0.31689
 H1410 H 0.43384 1.04749 0.34607
 H1411 H 0.49388 0.99365 0.38668
 H1412 H 0.50329 0.99187 0.41967
 H1413 H 0.47055 1.04595 0.43007
 H1414 H 0.46136 1.04751 0.39738
 C1415 C -0.04250 0.53069 0.83199
 C1416 C -0.05097 0.51320 0.82517
 C1417 C -0.06186 0.51332 0.80866
 C1418 C -0.06460 0.53106 0.79845
 C1419 C -0.05591 0.54864 0.80566
 C1420 C -0.04500 0.54840 0.82220
 C1421 C -0.03216 0.53060 0.84951
 C1422 C -0.02423 0.53058 0.86454
 C1423 C -0.01597 0.53087 0.88301
 C1424 C -0.00401 0.51529 0.88941
 C1425 C 0.00191 0.51468 0.90807
 C1426 C -0.00427 0.52957 0.92052
 C1427 C -0.01555 0.54555 0.91371
 C1428 C -0.02133 0.54618 0.89513
 H1429 H -0.04946 0.49944 0.83280
 H1430 H -0.06879 0.49951 0.80451
 H1431 H -0.05678 0.56258 0.79832
 H1432 H -0.03852 0.56209 0.82737
 H1433 H 0.00016 0.50329 0.88016
 H1434 H 0.01047 0.50213 0.91293
 H1435 H -0.02047 0.55732 0.92288
 H1436 H -0.03057 0.55829 0.89038
 C1437 C 0.03987 -0.03074 0.83247
 C1438 C 0.05251 -0.01500 0.82784
 C1439 C 0.06382 -0.01580 0.81160
 C1440 C 0.06268 -0.03239 0.79970
 C1441 C 0.04994 -0.04816 0.80447
 C1442 C 0.03862 -0.04733 0.82075
 C1443 C 0.02902 -0.03020 0.84971
 C1444 C 0.02075 -0.02981 0.86456
 C1445 C 0.01217 -0.02960 0.88289
 C1446 C 0.00009 -0.01385 0.88882
 C1447 C -0.00587 -0.01255 0.90744
 C1448 C 0.00042 -0.02688 0.92032
 C1449 C 0.01171 -0.04311 0.91397
 C1450 C 0.01750 -0.04445 0.89544
 H1451 H 0.05379 -0.00219 0.83689
 H1452 H 0.07367 -0.00354 0.80849
 H1453 H 0.04854 -0.06102 0.79551
 H1454 H 0.02898 -0.05966 0.82423
 H1455 H -0.00406 -0.00221 0.87925
 H1456 H -0.01441 0.00020 0.91194
 H1457 H 0.01670 -0.05445 0.92351
 H1458 H 0.02684 -0.05668 0.89106
 C1459 C 0.54869 0.47794 0.33679
 C1460 C 0.56047 0.49404 0.33133
 C1461 C 0.57026 0.49368 0.31424
 C1462 C 0.56844 0.47717 0.30230
 C1463 C 0.55658 0.46104 0.30791
 C1464 C 0.54679 0.46144 0.32504
 C1465 C 0.53937 0.47803 0.35480
 C1466 C 0.53227 0.47793 0.37018
 C1467 C 0.52492 0.47738 0.38896
 C1468 C 0.51142 0.49161 0.39550
 C1469 C 0.50582 0.49180 0.41425
 C1470 C 0.51382 0.47784 0.42667
 C1471 C 0.52686 0.46326 0.41976
 C1472 C 0.53233 0.46306 0.40110
 H1473 H 0.56224 0.50680 0.34038
 H1474 H 0.57949 0.50621 0.31047
 H1475 H 0.55467 0.44823 0.29897
 H1476 H 0.53780 0.44884 0.32914
 H1477 H 0.50563 0.50283 0.38624
 H1478 H 0.49584 0.50327 0.41915
 H1479 H 0.53322 0.45221 0.42887
 H1480 H 0.54278 0.45198 0.39624
 C1481 C 0.54800 0.52888 0.16384
 C1482 C 0.55947 0.51260 0.16929
 C1483 C 0.56963 0.51296 0.18620
 C1484 C 0.56850 0.52966 0.19797
 C1485 C 0.55701 0.54601 0.19234
 C1486 C 0.54683 0.54561 0.17539
 C1487 C 0.53816 0.52864 0.14607
 C1488 C 0.53061 0.52841 0.13086
 C1489 C 0.52274 0.52832 0.11225
 C1490 C 0.51036 0.51291 0.10603
 C1491 C 0.50468 0.51187 0.08732
 C1492 C 0.51152 0.52616 0.07462
 C1493 C 0.52327 0.54199 0.08123
 C1494 C 0.52882 0.54304 0.09986
 H1495 H 0.56067 0.49966 0.16039
 H1496 H 0.57858 0.50025 0.18997
 H1497 H 0.55565 0.55898 0.20117
 H1498 H 0.53809 0.55835 0.17129
 H1499 H 0.50562 0.50136 0.11549
 H1500 H 0.49574 0.49944 0.08265
 H1501 H 0.52872 0.55331 0.07187
 H1502 H 0.53841 0.55502 0.10447
 C1503 C 0.05095 1.01827 0.66153
 C1504 C 0.05780 1.00060 0.66929
 C1505 C 0.06742 1.00075 0.68648
 C1506 C 0.07045 1.01868 0.69644
 C1507 C 0.06352 1.03644 0.68822
 C1508 C 0.05388 1.03619 0.67101
 C1509 C 0.04167 1.01804 0.64349
 C1510 C 0.03450 1.01782 0.62814
 C1511 C 0.02698 1.01780 0.60940
 C1512 C 0.01429 1.00270 0.60307
 C1513 C 0.00863 1.00191 0.58434
 C1514 C 0.01577 1.01616 0.57174
 C1515 C 0.02795 1.03162 0.57846
 C1516 C 0.03349 1.03241 0.59710
 H1517 H 0.05596 0.98666 0.66193
 H1518 H 0.07312 0.98673 0.69141
 H1519 H 0.06473 1.05059 0.69527
 H1520 H 0.04865 1.05001 0.66511
 H1521 H 0.00921 0.99125 0.61247
 H1522 H -0.00067 0.98978 0.57960
 H1523 H 0.03363 1.04292 0.56920
 H1524 H 0.04330 1.04416 0.60181
 C1525 C -0.05076 0.47807 0.66093
 C1526 C -0.06202 0.49444 0.66661
 C1527 C -0.07177 0.49423 0.68371
 C1528 C -0.07040 0.47762 0.69545
 C1529 C -0.05917 0.46116 0.68958
 C1530 C -0.04941 0.46140 0.67243
 C1531 C -0.04128 0.47818 0.64301
 C1532 C -0.03398 0.47824 0.62772
 C1533 C -0.02634 0.47799 0.60905
 C1534 C -0.03239 0.46290 0.59694
 C1535 C -0.02682 0.46340 0.57831
 C1536 C -0.01505 0.47903 0.57143
 C1537 C -0.00835 0.49378 0.58384
 C1538 C -0.01406 0.49329 0.60254
 H1539 H -0.06337 0.50734 0.65775
 H1540 H -0.08053 0.50702 0.68769
 H1541 H -0.05765 0.44824 0.69838
 H1542 H -0.04082 0.44859 0.66815
 H1543 H -0.04190 0.45100 0.60178
 H1544 H -0.03214 0.45173 0.56920
 H1545 H 0.00062 0.50606 0.57895
 H1546 H -0.00934 0.50511 0.61179
 C1547 C 0.44796 -0.02263 0.16411
 C1548 C 0.43574 -0.00709 0.17006
 C1549 C 0.42615 -0.00815 0.18721
 C1550 C 0.42864 -0.02482 0.19871
 C1551 C 0.44084 -0.04046 0.19257
 C1552 C 0.45043 -0.03936 0.17538
 C1553 C 0.45722 -0.02171 0.14613
 C1554 C 0.46427 -0.02101 0.13076
 C1555 C 0.47154 -0.02056 0.11197
 C1556 C 0.46510 -0.03509 0.09947
 C1557 C 0.47032 -0.03393 0.08079
 C1558 C 0.48213 -0.01816 0.07425
 C1559 C 0.48923 -0.00398 0.08702
 C1560 C 0.48386 -0.00513 0.10579
 H1561 H 0.43353 0.00583 0.16137
 H1562 H 0.41664 0.00400 0.19141
 H1563 H 0.44322 -0.05338 0.20119
 H1564 H 0.45976 -0.05154 0.17088
 H1565 H 0.45556 -0.04708 0.10406
 H1566 H 0.46471 -0.04520 0.07139
 H1567 H 0.49825 0.00838 0.08240
 H1568 H 0.48888 0.00626 0.11535
 C1569 C 0.34473 0.41319 0.01209
 C1570 C 0.32596 0.42150 0.00885
 C1571 C 0.30885 0.40955 0.00944
 C1572 C 0.31032 0.38915 0.01337
 C1573 C 0.32929 0.38091 0.01617
 C1574 C 0.34629 0.39282 0.01556
 C1575 C 0.36249 0.42529 0.01172
 C1576 C 0.37767 0.43492 0.01117
 C1577 C 0.39602 0.44602 0.00978
 C1578 C 0.40432 0.44931 -0.00770
 C1579 C 0.42206 0.45991 -0.00943
 C1580 C 0.43195 0.46751 0.00632
 C1581 C 0.42360 0.46400 0.02392
 C1582 C 0.40575 0.45332 0.02562
 H1583 H 0.32453 0.43723 0.00604
 H1584 H 0.29448 0.41635 0.00733
 H1585 H 0.33098 0.36520 0.01892
 H1586 H 0.36069 0.38613 0.01790
 H1587 H 0.39704 0.44370 -0.02006
 H1588 H 0.42793 0.46225 -0.02323
 H1589 H 0.43075 0.46962 0.03634
 H1590 H 0.39953 0.45080 0.03926
 C1591 C -0.15407 0.90723 0.51299
 C1592 C -0.17133 0.91385 0.50414
 C1593 C -0.18908 0.90300 0.50552
 C1594 C -0.19007 0.88522 0.51594
 C1595 C -0.17228 0.87869 0.52449
 C1596 C -0.15463 0.88956 0.52304
 C1597 C -0.13568 0.91834 0.51164
 C1598 C -0.12018 0.92740 0.51043
 C1599 C -0.10162 0.93811 0.50850
 C1600 C -0.09407 0.94187 0.49079
 C1601 C -0.07636 0.95247 0.48863
 C1602 C -0.06575 0.95959 0.50417
 C1603 C -0.07330 0.95552 0.52198
 C1604 C -0.09111 0.94487 0.52411
 H1605 H -0.17113 0.92754 0.49628
 H1606 H -0.20212 0.90918 0.49899
 H1607 H -0.17151 0.86474 0.53184
 H1608 H -0.14133 0.88405 0.52972
 H1609 H -0.10197 0.93672 0.47859
 H1610 H -0.07109 0.95524 0.47469
 H1611 H -0.06561 0.96077 0.53425
 H1612 H -0.09674 0.94203 0.53792
 C1613 C -0.16483 0.08733 0.98305
 C1614 C -0.16272 0.10749 0.97883
 C1615 C -0.17932 0.11995 0.97850
 C1616 C -0.19842 0.11248 0.98236
 C1617 C -0.20040 0.09224 0.98688
 C1618 C -0.18372 0.07976 0.98719
 C1619 C -0.14749 0.07466 0.98343
 C1620 C -0.13272 0.06445 0.98404
 C1621 C -0.11486 0.05261 0.98548
 C1622 C -0.10768 0.04749 1.00301
 C1623 C -0.09021 0.03650 1.00478
 C1624 C -0.07947 0.03034 0.98900
 C1625 C -0.08682 0.03547 0.97136
 C1626 C -0.10439 0.04655 0.96963
 H1627 H -0.14821 0.11362 0.97578
 H1628 H -0.17717 0.13551 0.97532
 H1629 H -0.21488 0.08597 0.98979
 H1630 H -0.18558 0.06420 0.99057
 H1631 H -0.11556 0.05209 1.01539
 H1632 H -0.08513 0.03286 1.01861
 H1633 H -0.07896 0.03104 0.95892
 H1634 H -0.10972 0.05047 0.95595
 C1635 C 0.34355 0.58420 0.48862
 C1636 C 0.34520 0.60451 0.48485
 C1637 C 0.32822 0.61639 0.48397
 C1638 C 0.30922 0.60819 0.48682
 C1639 C 0.30769 0.58784 0.49103
 C1640 C 0.32475 0.57593 0.49188
 C1641 C 0.36124 0.57206 0.48925
 C1642 C 0.37627 0.56228 0.49000
 C1643 C 0.39435 0.55084 0.49155
 C1644 C 0.40099 0.54503 0.50908
 C1645 C 0.41855 0.53421 0.51095
 C1646 C 0.42992 0.52893 0.49527
 C1647 C 0.42316 0.53485 0.47764
 C1648 C 0.40551 0.54575 0.47582
 H1649 H 0.35962 0.61117 0.48248
 H1650 H 0.32997 0.63206 0.48102
 H1651 H 0.29330 0.58105 0.49316
 H1652 H 0.32326 0.56025 0.49490
 H1653 H 0.39258 0.54890 0.52137
 H1654 H 0.42316 0.52995 0.52476
 H1655 H 0.43149 0.53108 0.46529
 H1656 H 0.40058 0.55021 0.46215
 C1657 C 0.15395 0.58782 0.51035
 C1658 C 0.15342 0.60785 0.51554
 C1659 C 0.17101 0.61881 0.51700
 C1660 C 0.18952 0.60992 0.51334
 C1661 C 0.18991 0.58992 0.50762
 C1662 C 0.17224 0.57894 0.50618
 C1663 C 0.13567 0.57653 0.50940
 C1664 C 0.12022 0.56738 0.50852
 C1665 C 0.10168 0.55661 0.50691
 C1666 C 0.09372 0.55287 0.48933
 C1667 C 0.07602 0.54220 0.48744
 C1668 C 0.06584 0.53501 0.50313
 C1669 C 0.07377 0.53910 0.52082
 C1670 C 0.09158 0.54982 0.52268
 H1671 H 0.13940 0.61498 0.51864
 H1672 H 0.17014 0.63426 0.52114
 H1673 H 0.20391 0.58262 0.50483
 H1674 H 0.17287 0.56346 0.50206
 H1675 H 0.10130 0.55808 0.47701
 H1676 H 0.07045 0.53943 0.47358
 H1677 H 0.06640 0.53378 0.53319
 H1678 H 0.09754 0.55266 0.53639
 C1679 C 0.65031 0.09295 0.01511
 C1680 C 0.64959 0.11292 0.02052
 C1681 C 0.66701 0.12424 0.02151
 C1682 C 0.68556 0.11580 0.01712
 C1683 C 0.68614 0.09578 0.01145
 C1684 C 0.66865 0.08445 0.01048
 C1685 C 0.63218 0.08138 0.01410
 C1686 C 0.61689 0.07193 0.01301
 C1687 C 0.59859 0.06077 0.01110
 C1688 C 0.59136 0.05630 -0.00662
 C1689 C 0.57382 0.04540 -0.00880
 C1690 C 0.56305 0.03868 0.00675
 C1691 C 0.57031 0.04341 0.02457
 C1692 C 0.58795 0.05436 0.02670
 H1693 H 0.63553 0.11978 0.02399
 H1694 H 0.66594 0.13969 0.02562
 H1695 H 0.70014 0.08876 0.00812
 H1696 H 0.66945 0.06903 0.00620
 H1697 H 0.59936 0.06117 -0.01882
 H1698 H 0.56880 0.04211 -0.02274
 H1699 H 0.56248 0.03849 0.03684
 H1700 H 0.59333 0.05775 0.04052
 C1701 C 0.65586 0.90935 0.48699
 C1702 C 0.65531 0.88972 0.48055
 C1703 C 0.67281 0.87862 0.47914
 C1704 C 0.69128 0.88695 0.48412
 C1705 C 0.69168 0.90661 0.49084
 C1706 C 0.67411 0.91772 0.49223
 C1707 C 0.63768 0.92077 0.48829
 C1708 C 0.62240 0.93016 0.48953
 C1709 C 0.60412 0.94132 0.49149
 C1710 C 0.59321 0.94727 0.47588
 C1711 C 0.57563 0.95826 0.47799
 C1712 C 0.56868 0.96347 0.49578
 C1713 C 0.57971 0.95723 0.51134
 C1714 C 0.59721 0.94630 0.50919
 H1715 H 0.64132 0.88296 0.47658
 H1716 H 0.67186 0.86343 0.47422
 H1717 H 0.70561 0.91356 0.49464
 H1718 H 0.67480 0.93288 0.49727
 H1719 H 0.59833 0.94351 0.46208
 H1720 H 0.56759 0.96277 0.46571
 H1721 H 0.57492 0.96091 0.52527
 H1722 H 0.60542 0.94180 0.52140
 C1723 C 0.16004 0.41505 0.98309
 C1724 C 0.17903 0.42269 0.98681
 C1725 C 0.19572 0.41024 0.98619
 C1726 C 0.19368 0.38995 0.98177
 C1727 C 0.17449 0.38241 0.97833
 C1728 C 0.15788 0.39484 0.97896
 C1729 C 0.14271 0.42774 0.98372
 C1730 C 0.12800 0.43804 0.98448
 C1731 C 0.11029 0.45011 0.98602
 C1732 C 0.10350 0.45581 1.00357
 C1733 C 0.08631 0.46725 1.00540
 C1734 C 0.07548 0.47332 0.98966
 C1735 C 0.08238 0.46752 0.97201
 C1736 C 0.09965 0.45599 0.97023
 H1737 H 0.18094 0.43829 0.99010
 H1738 H 0.21025 0.41657 0.98877
 H1739 H 0.17229 0.36681 0.97522
 H1740 H 0.14331 0.38865 0.97622
 H1741 H 0.11150 0.45136 1.01592
 H1742 H 0.08156 0.47139 1.01922
 H1743 H 0.07444 0.47185 0.95961
 H1744 H 0.10468 0.45164 0.95654
 C1745 C 0.01190 0.33576 0.38507
 C1746 C 0.00482 0.31719 0.39056
 C1747 C 0.00517 0.30129 0.37816
 C1748 C 0.01259 0.30384 0.36010
 C1749 C 0.01949 0.32264 0.35463
 C1750 C 0.01912 0.33855 0.36708
 C1751 C 0.01146 0.35198 0.39790
 C1752 C 0.01060 0.36556 0.40868
 C1753 C 0.00882 0.38188 0.42130
 C1754 C 0.02130 0.38343 0.43676
 C1755 C 0.01921 0.39939 0.44904
 C1756 C 0.00457 0.41388 0.44592
 C1757 C -0.00790 0.41205 0.43032
 C1758 C -0.00576 0.39616 0.41812
 H1759 H -0.00082 0.31495 0.40448
 H1760 H 0.00012 0.28687 0.38285
 H1761 H 0.02520 0.32498 0.34077
 H1762 H 0.02452 0.35297 0.36273
 H1763 H 0.03260 0.37234 0.43930
 H1764 H 0.02905 0.40040 0.46089
 H1765 H -0.01927 0.42295 0.42742
 H1766 H -0.01549 0.39501 0.40618
 C1767 C 0.50535 -0.15925 -0.11299
 C1768 C 0.49695 -0.17778 -0.10918
 C1769 C 0.50035 -0.19374 -0.12113
 C1770 C 0.51225 -0.19125 -0.13697
 C1771 C 0.51995 -0.17236 -0.14107
 C1772 C 0.51651 -0.15643 -0.12911
 C1773 C 0.50347 -0.14340 -0.09987
 C1774 C 0.50224 -0.13007 -0.08885
 C1775 C 0.50080 -0.11395 -0.07598
 C1776 C 0.51423 -0.11232 -0.06123
 C1777 C 0.51307 -0.09618 -0.04905
 C1778 C 0.49846 -0.08155 -0.05159
 C1779 C 0.48497 -0.08350 -0.06642
 C1780 C 0.48616 -0.09960 -0.07851
 H1781 H 0.48833 -0.18005 -0.09669
 H1782 H 0.49451 -0.20821 -0.11751
 H1783 H 0.52906 -0.17009 -0.15326
 H1784 H 0.52301 -0.14207 -0.13215
 H1785 H 0.52565 -0.12342 -0.05924
 H1786 H 0.52368 -0.09508 -0.03780
 H1787 H 0.47353 -0.07253 -0.06883
 H1788 H 0.47575 -0.10076 -0.08994
 C1789 C -0.00217 -0.15266 1.11808
 C1790 C -0.01421 -0.15042 1.13373
 C1791 C -0.01799 -0.16670 1.14511
 C1792 C -0.00981 -0.18535 1.14084
 C1793 C 0.00332 -0.18711 1.12578
 C1794 C 0.00707 -0.17082 1.11442
 C1795 C -0.00125 -0.13714 1.10462
 C1796 C -0.00127 -0.12450 1.09293
 C1797 C -0.00179 -0.10960 1.07886
 C1798 C -0.01603 -0.11062 1.06474
 C1799 C -0.01679 -0.09585 1.05121
 C1800 C -0.00328 -0.07993 1.05172
 C1801 C 0.01107 -0.07919 1.06596
 C1802 C 0.01177 -0.09394 1.07943
 H1803 H -0.02144 -0.13639 1.13661
 H1804 H -0.02804 -0.16498 1.15672
 H1805 H 0.00960 -0.20137 1.12203
 H1806 H 0.01632 -0.17266 1.10225
 H1807 H -0.02660 -0.12276 1.06427
 H1808 H -0.02800 -0.09683 1.04047
 H1809 H 0.02170 -0.06714 1.06682
 H1810 H 0.02282 -0.09306 1.09033
 C1811 C 0.49676 0.33672 0.61593
 C1812 C 0.48763 0.34092 0.63290
 C1813 C 0.48519 0.32591 0.64599
 C1814 C 0.49187 0.30656 0.64216
 C1815 C 0.50172 0.30270 0.62535
 C1816 C 0.50414 0.31773 0.61230
 C1817 C 0.49773 0.35164 0.60190
 C1818 C 0.49837 0.36420 0.59015
 C1819 C 0.49929 0.37953 0.57650
 C1820 C 0.48400 0.38179 0.56353
 C1821 C 0.48454 0.39754 0.55096
 C1822 C 0.50037 0.41117 0.55139
 C1823 C 0.51587 0.40840 0.56424
 C1824 C 0.51530 0.39269 0.57671
 H1825 H 0.48194 0.35565 0.63581
 H1826 H 0.47764 0.32925 0.65888
 H1827 H 0.50669 0.28786 0.62189
 H1828 H 0.51122 0.31439 0.59916
 H1829 H 0.47153 0.37160 0.56335
 H1830 H 0.47240 0.39931 0.54126
 H1831 H 0.52836 0.41853 0.56488
 H1832 H 0.52719 0.39100 0.58670
 C1833 C 0.50540 1.15948 0.61640
 C1834 C 0.49793 1.17838 0.61260
 C1835 C 0.49992 1.19352 0.62570
 C1836 C 0.50943 1.18986 0.64271
 C1837 C 0.51613 1.17059 0.64671
 C1838 C 0.51412 1.15546 0.63358
 C1839 C 0.50482 1.14442 0.60239
 C1840 C 0.50439 1.13168 0.59072
 C1841 C 0.50350 1.11611 0.57723
 C1842 C 0.48715 1.10339 0.57719
 C1843 C 0.48645 1.08748 0.56487
 C1844 C 0.50216 1.08405 0.55239
 C1845 C 0.51838 1.09722 0.55221
 C1846 C 0.51905 1.11318 0.56465
 H1847 H 0.49115 1.18156 0.59930
 H1848 H 0.49495 1.20831 0.62212
 H1849 H 0.52343 1.16742 0.65976
 H1850 H 0.51985 1.14080 0.63662
 H1851 H 0.47506 1.10559 0.58688
 H1852 H 0.47365 1.07774 0.56530
 H1853 H 0.53068 1.09493 0.54279
 H1854 H 0.53179 1.12303 0.56466
 C1855 C 0.00996 0.66575 1.11355
 C1856 C -0.00036 0.68329 1.11013
 C1857 C 0.00004 0.69869 1.12309
 C1858 C 0.01095 0.69687 1.13978
 C1859 C 0.02072 0.67867 1.14322
 C1860 C 0.02023 0.66331 1.13019
 C1861 C 0.01011 0.65034 1.09985
 C1862 C 0.01001 0.63741 1.08835
 C1863 C 0.00933 0.62180 1.07486
 C1864 C -0.00534 0.60724 1.07632
 C1865 C -0.00617 0.59183 1.06345
 C1866 C 0.00772 0.59076 1.04888
 C1867 C 0.02237 0.60559 1.04744
 C1868 C 0.02315 0.62105 1.06041
 H1869 H -0.00835 0.68526 1.09722
 H1870 H -0.00721 0.71238 1.11924
 H1871 H 0.02852 0.67599 1.15609
 H1872 H 0.02800 0.64957 1.13306
 H1873 H -0.01610 0.60774 1.08748
 H1874 H -0.01764 0.58068 1.06503
 H1875 H 0.03327 0.60517 1.03642
 H1876 H 0.03455 0.63235 1.05921
 C1877 C 0.49505 0.65728 -0.11992
 C1878 C 0.50628 0.67431 -0.11650
 C1879 C 0.50466 0.69067 -0.12817
 C1880 C 0.49154 0.69036 -0.14351
 C1881 C 0.48107 0.67254 -0.14723
 C1882 C 0.48277 0.65622 -0.13548
 C1883 C 0.49544 0.64134 -0.10688
 C1884 C 0.49582 0.62828 -0.09562
 C1885 C 0.49660 0.61284 -0.08208
 C1886 C 0.51090 0.59799 -0.08375
 C1887 C 0.51202 0.58303 -0.07053
 C1888 C 0.49879 0.58274 -0.05540
 C1889 C 0.48443 0.59778 -0.05383
 C1890 C 0.48337 0.61279 -0.06713
 H1891 H 0.51580 0.67522 -0.10439
 H1892 H 0.51266 0.70392 -0.12413
 H1893 H 0.47159 0.67102 -0.15927
 H1894 H 0.47422 0.64291 -0.13835
 H1895 H 0.52121 0.59797 -0.09528
 H1896 H 0.52321 0.57165 -0.07225
 H1897 H 0.47403 0.59795 -0.04239
 H1898 H 0.47229 0.62433 -0.06575
 C1899 C -0.00998 1.15517 0.38294
 C1900 C 0.00279 1.17149 0.38376
 C1901 C -0.00036 1.18775 0.37221
 C1902 C -0.01659 1.18803 0.35976
 C1903 C -0.02852 1.17079 0.35836
 C1904 C -0.02528 1.15459 0.36992
 C1905 C -0.00811 1.13954 0.39617
 C1906 C -0.00679 1.12654 0.40743
 C1907 C -0.00509 1.11091 0.42070
 C1908 C 0.01059 1.09752 0.41921
 C1909 C 0.01214 1.08190 0.43169
 C1910 C -0.00203 1.07946 0.44587
 C1911 C -0.01764 1.09320 0.44742
 C1912 C -0.01915 1.10887 0.43484
 H1913 H 0.01471 1.17199 0.39386
 H1914 H 0.00908 1.20057 0.37427
 H1915 H -0.04047 1.16971 0.34837
 H1916 H -0.03503 1.14180 0.36902
 H1917 H 0.02152 1.09904 0.40829
 H1918 H 0.02439 1.07165 0.43008
 H1919 H -0.02877 1.09170 0.45815
 H1920 H -0.03135 1.11926 0.43604
 C1921 C 0.78070 0.71026 0.91604
 C1922 C 0.79809 0.70724 0.92620
 C1923 C 0.79764 0.69638 0.94272
 C1924 C 0.77968 0.68824 0.94953
 C1925 C 0.76225 0.69156 0.93898
 C1926 C 0.76281 0.70240 0.92248
 C1927 C 0.78130 0.72056 0.89854
 C1928 C 0.78172 0.72850 0.88355
 C1929 C 0.78226 0.73689 0.86518
 C1930 C 0.76711 0.74950 0.85902
 C1931 C 0.76647 0.75554 0.84043
 C1932 C 0.78090 0.74885 0.82777
 C1933 C 0.79654 0.73693 0.83435
 C1934 C 0.79719 0.73101 0.85288
 H1935 H 0.81207 0.71327 0.92135
 H1936 H 0.81139 0.69510 0.95036
 H1937 H 0.74815 0.68510 0.94283
 H1938 H 0.74927 0.70435 0.91457
 H1939 H 0.75541 0.75408 0.86839
 H1940 H 0.75417 0.76458 0.83579
 H1941 H 0.80793 0.73156 0.82501
 H1942 H 0.80896 0.72124 0.85746
 C1943 C 0.27385 0.20300 0.41361
 C1944 C 0.26119 0.20837 0.42809
 C1945 C 0.26240 0.19870 0.44518
 C1946 C 0.27630 0.18326 0.44823
 C1947 C 0.28929 0.17842 0.43349
 C1948 C 0.28799 0.18814 0.41641
 C1949 C 0.27201 0.21220 0.39567
 C1950 C 0.27088 0.21910 0.38027
 C1951 C 0.27040 0.22607 0.36140
 C1952 C 0.28494 0.21936 0.34912
 C1953 C 0.28415 0.22458 0.33046
 C1954 C 0.26875 0.23667 0.32365
 C1955 C 0.25445 0.24391 0.33617
 C1956 C 0.25523 0.23854 0.35497
 H1957 H 0.25031 0.22001 0.42616
 H1958 H 0.25268 0.20389 0.45608
 H1959 H 0.29986 0.16642 0.43458
 H1960 H 0.29781 0.18376 0.40523
 H1961 H 0.29674 0.20973 0.35390
 H1962 H 0.29554 0.21887 0.32129
 H1963 H 0.24241 0.25320 0.33135
 H1964 H 0.24384 0.24379 0.36437
 C1965 C 0.71982 0.29212 0.41525
 C1966 C 0.70373 0.29109 0.42750
 C1967 C 0.70438 0.30128 0.44446
 C1968 C 0.72114 0.31266 0.44938
 C1969 C 0.73721 0.31358 0.43695
 C1970 C 0.73654 0.30339 0.42003
 C1971 C 0.71895 0.28233 0.39744
 C1972 C 0.71835 0.27484 0.38220
 C1973 C 0.71769 0.26700 0.36357
 C1974 C 0.70291 0.27352 0.35142
 C1975 C 0.70350 0.26814 0.33270
 C1976 C 0.71893 0.25613 0.32580
 C1977 C 0.73319 0.24880 0.33829
 C1978 C 0.73261 0.25430 0.35706
 H1979 H 0.69067 0.28248 0.42393
 H1980 H 0.69186 0.30009 0.45381
 H1981 H 0.75021 0.32243 0.44019
 H1982 H 0.74900 0.30446 0.41060
 H1983 H 0.69130 0.28338 0.35626
 H1984 H 0.69223 0.27399 0.32350
 H1985 H 0.74534 0.23966 0.33342
 H1986 H 0.74419 0.24923 0.36633
 C1987 C 0.22208 0.79299 0.91713
 C1988 C 0.20893 0.80897 0.91846
 C1989 C 0.20793 0.82031 0.93472
 C1990 C 0.22023 0.81599 0.95010
 C1991 C 0.23320 0.79951 0.94852
 C1992 C 0.23409 0.78822 0.93223
 C1993 C 0.22353 0.78195 0.90003
 C1994 C 0.22442 0.77343 0.88531
 C1995 C 0.22473 0.76449 0.86713
 C1996 C 0.20852 0.76741 0.85537
 C1997 C 0.20936 0.76114 0.83695
 C1998 C 0.22646 0.75179 0.82993
 C1999 C 0.24236 0.74796 0.84204
 C2000 C 0.24154 0.75440 0.86057
 H2001 H 0.19964 0.81291 0.90677
 H2002 H 0.19816 0.83303 0.93468
 H2003 H 0.24233 0.79472 0.95999
 H2004 H 0.24421 0.77575 0.93142
 H2005 H 0.19546 0.77519 0.86027
 H2006 H 0.19680 0.76419 0.82801
 H2007 H 0.25575 0.74091 0.83699
 H2008 H 0.25422 0.75213 0.86955
 C2009 C 0.26806 0.80036 0.08713
 C2010 C 0.25550 0.79463 0.07267
 C2011 C 0.25633 0.80443 0.05561
 C2012 C 0.26978 0.82031 0.05259
 C2013 C 0.28254 0.82566 0.06739
 C2014 C 0.28162 0.81581 0.08442
 C2015 C 0.26688 0.79078 0.10495
 C2016 C 0.26637 0.78353 0.12022
 C2017 C 0.26669 0.77612 0.13894
 C2018 C 0.28124 0.78323 0.15107
 C2019 C 0.28124 0.77744 0.16960
 C2020 C 0.26664 0.76437 0.17642
 C2021 C 0.25232 0.75679 0.16404
 C2022 C 0.25231 0.76272 0.14538
 H2023 H 0.24506 0.78255 0.07455
 H2024 H 0.24678 0.79890 0.04469
 H2025 H 0.29269 0.83805 0.06635
 H2026 H 0.29133 0.82049 0.09560
 H2027 H 0.29244 0.79357 0.14627
 H2028 H 0.29261 0.78346 0.17865
 H2029 H 0.24088 0.74675 0.16887
 H2030 H 0.24093 0.75715 0.13610
 C2031 C 0.77818 0.29281 0.58598
 C2032 C 0.76811 0.28432 0.57093
 C2033 C 0.76795 0.29392 0.55373
 C2034 C 0.77786 0.31218 0.55137
 C2035 C 0.78804 0.32051 0.56657
 C2036 C 0.78818 0.31089 0.58373
 C2037 C 0.77798 0.28341 0.60392
 C2038 C 0.77807 0.27641 0.61931
 C2039 C 0.77857 0.26938 0.63817
 C2040 C 0.79250 0.27745 0.65044
 C2041 C 0.79195 0.27257 0.66923
 C2042 C 0.77742 0.25948 0.67610
 C2043 C 0.76397 0.25070 0.66354
 C2044 C 0.76450 0.25572 0.64468
 H2045 H 0.76032 0.27034 0.57250
 H2046 H 0.76019 0.28700 0.54225
 H2047 H 0.79557 0.33466 0.56531
 H2048 H 0.79594 0.31767 0.59530
 H2049 H 0.80345 0.28803 0.64559
 H2050 H 0.80261 0.27951 0.67846
 H2051 H 0.75255 0.24066 0.66841
 H2052 H 0.75358 0.24942 0.63531
 C2053 C 0.22388 0.19953 0.58577
 C2054 C 0.24028 0.18816 0.58044
 C2055 C 0.24025 0.17813 0.56343
 C2056 C 0.22378 0.17932 0.55146
 C2057 C 0.20729 0.19070 0.55698
 C2058 C 0.20736 0.20073 0.57403
 C2059 C 0.22377 0.20920 0.60363
 C2060 C 0.22366 0.21655 0.61892
 C2061 C 0.22328 0.22410 0.63765
 C2062 C 0.23767 0.23760 0.64399
 C2063 C 0.23825 0.24314 0.66276
 C2064 C 0.22454 0.23506 0.67538
 C2065 C 0.20973 0.22210 0.66866
 C2066 C 0.20913 0.21670 0.64998
 H2067 H 0.25306 0.18692 0.58949
 H2068 H 0.25305 0.16926 0.55973
 H2069 H 0.19449 0.19209 0.54800
 H2070 H 0.19452 0.20940 0.57806
 H2071 H 0.24877 0.24337 0.63456
 H2072 H 0.24987 0.25306 0.66752
 H2073 H 0.19885 0.21571 0.67796
 H2074 H 0.19795 0.20625 0.64527
 C2075 C 0.72192 0.70863 0.08319
 C2076 C 0.73853 0.69711 0.07874
 C2077 C 0.73913 0.68643 0.06208
 C2078 C 0.72308 0.68709 0.04959
 C2079 C 0.70643 0.69871 0.05417
 C2080 C 0.70587 0.70940 0.07087
 C2081 C 0.72111 0.71891 0.10076
 C2082 C 0.72052 0.72682 0.11581
 C2083 C 0.71984 0.73513 0.13427
 C2084 C 0.73440 0.74856 0.14035
 C2085 C 0.73501 0.75458 0.15898
 C2086 C 0.72115 0.74705 0.17177
 C2087 C 0.70607 0.73429 0.16529
 C2088 C 0.70544 0.72839 0.14671
 H2089 H 0.75097 0.69623 0.08824
 H2090 H 0.75205 0.67742 0.05911
 H2091 H 0.69395 0.69972 0.04476
 H2092 H 0.69289 0.71819 0.07418
 H2093 H 0.74569 0.75381 0.13086
 H2094 H 0.74690 0.76429 0.16354
 H2095 H 0.69512 0.72826 0.17473
 H2096 H 0.69412 0.71798 0.14220
 C2097 C 0.16227 0.59185 0.23470
 C2098 C 0.14220 0.59352 0.23000
 C2099 C 0.13024 0.57656 0.22876
 C2100 C 0.13816 0.55756 0.23215
 C2101 C 0.15830 0.55602 0.23715
 C2102 C 0.17027 0.57305 0.23838
 C2103 C 0.17449 0.60949 0.23587
 C2104 C 0.18446 0.62441 0.23705
 C2105 C 0.19627 0.64225 0.23902
 C2106 C 0.19979 0.65474 0.22384
 C2107 C 0.21120 0.67207 0.22602
 C2108 C 0.21923 0.67715 0.24345
 C2109 C 0.21548 0.66447 0.25859
 C2110 C 0.20414 0.64723 0.25637
 H2111 H 0.13576 0.60795 0.22727
 H2112 H 0.11473 0.57833 0.22520
 H2113 H 0.16489 0.54163 0.23971
 H2114 H 0.18577 0.57155 0.24209
 H2115 H 0.19373 0.65109 0.21033
 H2116 H 0.21373 0.68145 0.21408
 H2117 H 0.22138 0.66780 0.27223
 H2118 H 0.20150 0.63776 0.26824
 C2119 C 0.66535 0.09389 0.73701
 C2120 C 0.64539 0.09604 0.73205
 C2121 C 0.63291 0.07943 0.73109
 C2122 C 0.64018 0.06030 0.73506
 C2123 C 0.66022 0.05828 0.74025
 C2124 C 0.67271 0.07495 0.74119
 C2125 C 0.67807 0.11120 0.73803
 C2126 C 0.68839 0.12589 0.73908
 C2127 C 0.70044 0.14360 0.74087
 C2128 C 0.70619 0.15448 0.72521
 C2129 C 0.71751 0.17189 0.72720
 C2130 C 0.72320 0.17869 0.74493
 C2131 C 0.71736 0.16756 0.76054
 C2132 C 0.70611 0.15022 0.75851
 H2133 H 0.63943 0.11059 0.72893
 H2134 H 0.61750 0.08160 0.72737
 H2135 H 0.66633 0.04377 0.74325
 H2136 H 0.68812 0.07307 0.74511
 H2137 H 0.70184 0.14957 0.71147
 H2138 H 0.72167 0.18007 0.71489
 H2139 H 0.72145 0.17225 0.77441
 H2140 H 0.70175 0.14201 0.77075
 C2141 C 0.83630 0.09424 0.26431
 C2142 C 0.84288 0.08716 0.28142
 C2143 C 0.85458 0.07005 0.28238
 C2144 C 0.86017 0.05948 0.26616
 C2145 C 0.85290 0.06663 0.24900
 C2146 C 0.84121 0.08383 0.24813
 C2147 C 0.82480 0.11235 0.26338
 C2148 C 0.81535 0.12759 0.26249
 C2149 C 0.80416 0.14584 0.26094
 C2150 C 0.79553 0.15475 0.27659
 C2151 C 0.78440 0.17226 0.27479
 C2152 C 0.78172 0.18109 0.25729
 C2153 C 0.79070 0.17210 0.24173
 C2154 C 0.80178 0.15467 0.24356
 H2155 H 0.83897 0.09490 0.29410
 H2156 H 0.85865 0.06493 0.29606
 H2157 H 0.85694 0.05969 0.23600
 H2158 H 0.83627 0.08918 0.23475
 H2159 H 0.79728 0.14809 0.29014
 H2160 H 0.77773 0.17872 0.28706
 H2161 H 0.78904 0.17840 0.22802
 H2162 H 0.80838 0.14800 0.23134
 C2163 C 0.33959 0.58654 0.76751
 C2164 C 0.35822 0.58721 0.77596
 C2165 C 0.37008 0.57022 0.77672
 C2166 C 0.36361 0.55187 0.76908
 C2167 C 0.34478 0.55158 0.76034
 C2168 C 0.33294 0.56869 0.75964
 C2169 C 0.32758 0.60431 0.76668
 C2170 C 0.31784 0.61936 0.76583
 C2171 C 0.30635 0.63742 0.76427
 C2172 C 0.30007 0.64783 0.78009
 C2173 C 0.28873 0.66520 0.77832
 C2174 C 0.28350 0.67240 0.76066
 C2175 C 0.29015 0.66192 0.74488
 C2176 C 0.30144 0.64463 0.74670
 H2177 H 0.36372 0.60100 0.78183
 H2178 H 0.38469 0.57194 0.78274
 H2179 H 0.33863 0.53804 0.75463
 H2180 H 0.31851 0.56795 0.75303
 H2181 H 0.30383 0.64245 0.79379
 H2182 H 0.28390 0.67285 0.79075
 H2183 H 0.28650 0.66693 0.73105
 H2184 H 0.30624 0.63680 0.73434
 C2185 C 0.33452 0.40334 0.73621
 C2186 C 0.35447 0.40108 0.73128
 C2187 C 0.36702 0.41764 0.73036
 C2188 C 0.35984 0.43683 0.73432
 C2189 C 0.33981 0.43896 0.73952
 C2190 C 0.32725 0.42233 0.74043
 C2191 C 0.32171 0.38608 0.73715
 C2192 C 0.31131 0.37143 0.73813
 C2193 C 0.29914 0.35379 0.73985
 C2194 C 0.29428 0.34221 0.72428
 C2195 C 0.28287 0.32486 0.72624
 C2196 C 0.27620 0.31881 0.74386
 C2197 C 0.28113 0.33065 0.75937
 C2198 C 0.29246 0.34793 0.75736
 H2199 H 0.36037 0.38649 0.72814
 H2200 H 0.38242 0.41539 0.72663
 H2201 H 0.33376 0.45351 0.74253
 H2202 H 0.31186 0.42431 0.74434
 H2203 H 0.29940 0.34652 0.71063
 H2204 H 0.27944 0.31613 0.71401
 H2205 H 0.27627 0.32657 0.77315
 H2206 H 0.29612 0.35668 0.76954
 C2207 C 0.83757 0.91233 0.22980
 C2208 C 0.83158 0.93003 0.23834
 C2209 C 0.84370 0.94698 0.23766
 C2210 C 0.86217 0.94668 0.22829
 C2211 C 0.86796 0.92850 0.21993
 C2212 C 0.85581 0.91166 0.22066
 C2213 C 0.82535 0.89468 0.23078
 C2214 C 0.81546 0.87970 0.23186
 C2215 C 0.80395 0.86167 0.23384
 C2216 C 0.80083 0.85383 0.25153
 C2217 C 0.78985 0.83638 0.25378
 C2218 C 0.78171 0.82635 0.23834
 C2219 C 0.78498 0.83428 0.22054
 C2220 C 0.79604 0.85182 0.21832
 H2221 H 0.81746 0.93077 0.24549
 H2222 H 0.83803 0.96043 0.24393
 H2223 H 0.88227 0.92677 0.21335
 H2224 H 0.86081 0.89797 0.21425
 H2225 H 0.80689 0.86124 0.26364
 H2226 H 0.78770 0.83082 0.26771
 H2227 H 0.77897 0.82698 0.20836
 H2228 H 0.79839 0.85770 0.20453
 C2229 C 0.66198 0.91107 0.76899
 C2230 C 0.67015 0.92979 0.76518
 C2231 C 0.65819 0.94682 0.76571
 C2232 C 0.63789 0.94537 0.77011
 C2233 C 0.62983 0.92645 0.77372
 C2234 C 0.64177 0.90949 0.77317
 C2235 C 0.67410 0.89339 0.76824
 C2236 C 0.68389 0.87838 0.76728
 C2237 C 0.69532 0.86033 0.76541
 C2238 C 0.69780 0.85184 0.74785
 C2239 C 0.70895 0.83452 0.74567
 C2240 C 0.71791 0.82527 0.76106
 C2241 C 0.71515 0.83376 0.77876
 C2242 C 0.70393 0.85118 0.78090
 H2243 H 0.68576 0.93123 0.76184
 H2244 H 0.66489 0.96115 0.76300
 H2245 H 0.61420 0.92472 0.77682
 H2246 H 0.63520 0.89511 0.77597
 H2247 H 0.69117 0.85869 0.73576
 H2248 H 0.71067 0.82849 0.73182
 H2249 H 0.72182 0.82709 0.79090
 H2250 H 0.70208 0.85756 0.79460
 C2251 C 0.16114 0.40613 0.26226
 C2252 C 0.16933 0.42484 0.25844
 C2253 C 0.15744 0.44192 0.25914
 C2254 C 0.13719 0.44052 0.26374
 C2255 C 0.12907 0.42160 0.26727
 C2256 C 0.14095 0.40460 0.26655
 C2257 C 0.17326 0.38844 0.26158
 C2258 C 0.18316 0.37348 0.26075
 C2259 C 0.19487 0.35558 0.25908
 C2260 C 0.20182 0.34974 0.24164
 C2261 C 0.21313 0.33249 0.23970
 C2262 C 0.21777 0.32065 0.25520
 C2263 C 0.21062 0.32655 0.27273
 C2264 C 0.19924 0.34390 0.27464
 H2265 H 0.18492 0.42624 0.25502
 H2266 H 0.16418 0.45625 0.25649
 H2267 H 0.11347 0.41993 0.27052
 H2268 H 0.13435 0.39023 0.26936
 H2269 H 0.19852 0.35857 0.22949
 H2270 H 0.21832 0.32851 0.22597
 H2271 H 0.21387 0.31784 0.28495
 H2272 H 0.19390 0.34822 0.28823
 C2273 C 0.08557 0.24880 0.86450
 C2274 C 0.08045 0.23454 0.87776
 C2275 C 0.06640 0.23910 0.89140
 C2276 C 0.05762 0.25802 0.89187
 C2277 C 0.06280 0.27209 0.87835
 C2278 C 0.07671 0.26751 0.86481
 C2279 C 0.10038 0.24493 0.85081
 C2280 C 0.11303 0.24310 0.83924
 C2281 C 0.12847 0.24223 0.82569
 C2282 C 0.14378 0.22848 0.82765
 C2283 C 0.15985 0.22893 0.81552
 C2284 C 0.16080 0.24322 0.80131
 C2285 C 0.14507 0.25671 0.79921
 C2286 C 0.12899 0.25622 0.81139
 H2287 H 0.08735 0.22002 0.87761
 H2288 H 0.06253 0.22802 0.90163
 H2289 H 0.05586 0.28659 0.87808
 H2290 H 0.08060 0.27861 0.85456
 H2291 H 0.14353 0.21772 0.83879
 H2292 H 0.17167 0.21827 0.81751
 H2293 H 0.14534 0.26786 0.78842
 H2294 H 0.11720 0.26703 0.80993
 C2295 C 0.60954 0.76959 0.38035
 C2296 C 0.60318 0.75321 0.39066
 C2297 C 0.58524 0.75410 0.40033
 C2298 C 0.57346 0.77131 0.39949
 C2299 C 0.58079 0.78812 0.39014
 C2300 C 0.59874 0.78724 0.38068
 C2301 C 0.62487 0.76742 0.36684
 C2302 C 0.63646 0.76575 0.35432
 C2303 C 0.64915 0.76374 0.33858
 C2304 C 0.66070 0.74670 0.33652
 C2305 C 0.67245 0.74433 0.32080
 C2306 C 0.67277 0.75901 0.30692
 C2307 C 0.66085 0.77598 0.30901
 C2308 C 0.64907 0.77830 0.32478
 H2309 H 0.61144 0.73942 0.39032
 H2310 H 0.58008 0.74102 0.40759
 H2311 H 0.57200 0.80148 0.38885
 H2312 H 0.60345 0.79988 0.37251
 H2313 H 0.66062 0.73527 0.34706
 H2314 H 0.68148 0.73109 0.31969
 H2315 H 0.66087 0.78759 0.29865
 H2316 H 0.63993 0.79144 0.32623
 C2317 C 0.60974 0.23079 0.11514
 C2318 C 0.60315 0.24726 0.10510
 C2319 C 0.58496 0.24645 0.09583
 C2320 C 0.57313 0.22925 0.09682
 C2321 C 0.58078 0.21228 0.10566
 C2322 C 0.59899 0.21307 0.11473
 C2323 C 0.62490 0.23311 0.12884
 C2324 C 0.63614 0.23510 0.14161
 C2325 C 0.64821 0.23774 0.15773
 C2326 C 0.65740 0.25601 0.16094
 C2327 C 0.66828 0.25904 0.17713
 C2328 C 0.67010 0.24377 0.19034
 C2329 C 0.66048 0.22553 0.18712
 C2330 C 0.64956 0.22257 0.17088
 H2331 H 0.61137 0.26110 0.10550
 H2332 H 0.57957 0.25965 0.08892
 H2333 H 0.57199 0.19889 0.10703
 H2334 H 0.60387 0.20035 0.12269
 H2335 H 0.65615 0.26793 0.15094
 H2336 H 0.67553 0.27326 0.17913
 H2337 H 0.66173 0.21345 0.19693
 H2338 H 0.64218 0.20846 0.16857
 C2339 C 0.07458 0.72497 0.65438
 C2340 C 0.07214 0.73880 0.64014
 C2341 C 0.05514 0.73823 0.62912
 C2342 C 0.04047 0.72377 0.63227
 C2343 C 0.04303 0.70998 0.64667
 C2344 C 0.06003 0.71059 0.65768
 C2345 C 0.09208 0.72556 0.66555
 C2346 C 0.10687 0.72635 0.67478
 C2347 C 0.12461 0.72774 0.68556
 C2348 C 0.13914 0.74156 0.68066
 C2349 C 0.15633 0.74332 0.69127
 C2350 C 0.15916 0.73125 0.70694
 C2351 C 0.14448 0.71725 0.71166
 C2352 C 0.12727 0.71553 0.70100
 H2353 H 0.08340 0.74994 0.63752
 H2354 H 0.05361 0.74885 0.61797
 H2355 H 0.03181 0.69886 0.64949
 H2356 H 0.06184 0.69988 0.66873
 H2357 H 0.13714 0.75104 0.66869
 H2358 H 0.16736 0.75418 0.68720
 H2359 H 0.14621 0.70774 0.72363
 H2360 H 0.11602 0.70479 0.70485
 C2361 C 0.89568 0.77767 0.62206
 C2362 C 0.90674 0.79516 0.62144
 C2363 C 0.92536 0.79525 0.61307
 C2364 C 0.93338 0.77764 0.60536
 C2365 C 0.92105 0.76064 0.60456
 C2366 C 0.90244 0.76064 0.61299
 C2367 C 0.87960 0.77620 0.63486
 C2368 C 0.86738 0.77448 0.64683
 C2369 C 0.85406 0.77179 0.66201
 C2370 C 0.85366 0.78566 0.67649
 C2371 C 0.84176 0.78228 0.69199
 C2372 C 0.83021 0.76491 0.69315
 C2373 C 0.83089 0.75100 0.67851
 C2374 C 0.84275 0.75445 0.66306
 H2375 H 0.90166 0.80836 0.62864
 H2376 H 0.93400 0.80870 0.61452
 H2377 H 0.92586 0.74708 0.59785
 H2378 H 0.89384 0.74703 0.61335
 H2379 H 0.86265 0.79900 0.67584
 H2380 H 0.84146 0.79332 0.70294
 H2381 H 0.82213 0.73751 0.67888
 H2382 H 0.84323 0.74352 0.65200
 C2383 C 0.43187 0.26335 0.15958
 C2384 C 0.44547 0.27840 0.16376
 C2385 C 0.46191 0.28136 0.15236
 C2386 C 0.46483 0.26930 0.13665
 C2387 C 0.45134 0.25386 0.13285
 C2388 C 0.43491 0.25093 0.14426
 C2389 C 0.41410 0.26148 0.17025
 C2390 C 0.39886 0.26023 0.17875
 C2391 C 0.38037 0.25899 0.18837
 C2392 C 0.37667 0.27143 0.20353
 C2393 C 0.35838 0.27061 0.21254
 C2394 C 0.34359 0.25732 0.20642
 C2395 C 0.34751 0.24489 0.19113
 C2396 C 0.36581 0.24574 0.18217
 H2397 H 0.44315 0.28810 0.17558
 H2398 H 0.47223 0.29321 0.15570
 H2399 H 0.45313 0.24453 0.12070
 H2400 H 0.42432 0.23934 0.14089
 H2401 H 0.38788 0.28180 0.20832
 H2402 H 0.35585 0.28036 0.22427
 H2403 H 0.33648 0.23449 0.18606
 H2404 H 0.36857 0.23615 0.17035
 C2405 C 0.43249 0.73584 0.33984
 C2406 C 0.43566 0.74920 0.35443
 C2407 C 0.45169 0.74653 0.36641
 C2408 C 0.46464 0.73040 0.36390
 C2409 C 0.46160 0.71733 0.34891
 C2410 C 0.44556 0.72003 0.33695
 C2411 C 0.41506 0.73758 0.32866
 C2412 C 0.39999 0.73884 0.31986
 C2413 C 0.38160 0.74022 0.31007
 C2414 C 0.36701 0.75329 0.31642
 C2415 C 0.34870 0.75416 0.30748
 C2416 C 0.34476 0.74190 0.29205
 C2417 C 0.35960 0.72885 0.28572
 C2418 C 0.37793 0.72802 0.29472
 H2419 H 0.42548 0.76138 0.35682
 H2420 H 0.45357 0.75666 0.37797
 H2421 H 0.47152 0.70494 0.34656
 H2422 H 0.44313 0.70960 0.32570
 H2423 H 0.36975 0.76271 0.32838
 H2424 H 0.33764 0.76439 0.31271
 H2425 H 0.35706 0.71924 0.27388
 H2426 H 0.38916 0.71777 0.28981
 C2427 C 0.90905 0.25678 0.87192
 C2428 C 0.92814 0.26377 0.86805
 C2429 C 0.94356 0.26016 0.88048
 C2430 C 0.93999 0.24944 0.89686
 C2431 C 0.92051 0.24359 0.90116
 C2432 C 0.90510 0.24722 0.88870
 C2433 C 0.89408 0.25753 0.85788
 C2434 C 0.88164 0.25743 0.84595
 C2435 C 0.86668 0.25694 0.83188
 C2436 C 0.85197 0.27148 0.83178
 C2437 C 0.83680 0.27061 0.81869
 C2438 C 0.83613 0.25512 0.80551
 C2439 C 0.85121 0.24071 0.80553
 C2440 C 0.86641 0.24162 0.81870
 H2441 H 0.93130 0.27110 0.85502
 H2442 H 0.95848 0.26455 0.87668
 H2443 H 0.91741 0.23540 0.91374
 H2444 H 0.89033 0.24177 0.89176
 H2445 H 0.85209 0.28337 0.84195
 H2446 H 0.82550 0.28202 0.81907
 H2447 H 0.85109 0.22861 0.79559
 H2448 H 0.87779 0.23027 0.81876
 C2449 C 0.55998 1.02224 0.67085
 C2450 C 0.56580 1.00491 0.67995
 C2451 C 0.57865 1.00584 0.69518
 C2452 C 0.58618 1.02426 0.70168
 C2453 C 0.57971 1.04166 0.69248
 C2454 C 0.56683 1.04061 0.67726
 C2455 C 0.54813 1.02101 0.65420
 C2456 C 0.53905 1.01950 0.63981
 C2457 C 0.52948 1.01697 0.62205
 C2458 C 0.53436 1.00043 0.61122
 C2459 C 0.52707 0.99862 0.59319
 C2460 C 0.51467 1.01333 0.58562
 C2461 C 0.50907 1.02953 0.59684
 C2462 C 0.51654 1.03138 0.61495
 H2463 H 0.56080 0.99054 0.67496
 H2464 H 0.58341 0.99190 0.70107
 H2465 H 0.58405 1.05630 0.69718
 H2466 H 0.56238 1.05418 0.67038
 H2467 H 0.54435 0.98920 0.61652
 H2468 H 0.53158 0.98592 0.58497
 H2469 H 0.49969 1.04116 0.59135
 H2470 H 0.51272 1.04430 0.62319
 C2471 C 0.05935 0.52093 1.16613
 C2472 C 0.06906 0.50355 1.17167
 C2473 C 0.08168 0.50376 1.18710
 C2474 C 0.08485 0.52142 1.19716
 C2475 C 0.07464 0.53871 1.19174
 C2476 C 0.06203 0.53846 1.17631
 C2477 C 0.04788 0.52100 1.14923
 C2478 C 0.03923 0.52064 1.13456
 C2479 C 0.03033 0.51945 1.11640
 C2480 C 0.03522 0.50341 1.10494
 C2481 C 0.02885 0.50295 1.08655
 C2482 C 0.01740 0.51854 1.07925
 C2483 C 0.01170 0.53422 1.09104
 C2484 C 0.01827 0.53472 1.10953
 H2485 H 0.06725 0.48993 1.16380
 H2486 H 0.08945 0.49027 1.19078
 H2487 H 0.07651 0.55247 1.19937
 H2488 H 0.05466 0.55201 1.17213
 H2489 H 0.04455 0.49153 1.11006
 H2490 H 0.03337 0.49060 1.07787
 H2491 H 0.00302 0.54648 1.08575
 H2492 H 0.01447 0.54728 1.11825
 C2493 C -0.05871 -0.01323 1.16564
 C2494 C -0.06503 0.00396 1.17483
 C2495 C -0.07775 0.00265 1.19014
 C2496 C -0.08469 -0.01598 1.19651
 C2497 C -0.07758 -0.03319 1.18732
 C2498 C -0.06483 -0.03178 1.17209
 C2499 C -0.04726 -0.01182 1.14878
 C2500 C -0.03864 -0.01059 1.13414
 C2501 C -0.02975 -0.00882 1.11601
 C2502 C -0.03581 0.00663 1.10443
 C2503 C -0.02953 0.00725 1.08600
 C2504 C -0.01698 -0.00759 1.07880
 C2505 C -0.01011 -0.02257 1.09074
 C2506 C -0.01657 -0.02324 1.10924
 H2507 H -0.06057 0.01845 1.16983
 H2508 H -0.08293 0.01642 1.19615
 H2509 H -0.08141 -0.04795 1.19202
 H2510 H -0.05997 -0.04523 1.16516
 H2511 H -0.04603 0.01784 1.10944
 H2512 H -0.03502 0.01904 1.07720
 H2513 H -0.00061 -0.03430 1.08555
 H2514 H -0.01187 -0.03537 1.11804
 C2515 C 0.44029 0.47360 0.67008
 C2516 C 0.43458 0.49110 0.67906
 C2517 C 0.42168 0.49046 0.69426
 C2518 C 0.41401 0.47220 0.70083
 C2519 C 0.42037 0.45463 0.69174
 C2520 C 0.43328 0.45537 0.67656
 C2521 C 0.45218 0.47454 0.65345
 C2522 C 0.46128 0.47583 0.63906
 C2523 C 0.47082 0.47820 0.62128
 C2524 C 0.46574 0.49455 0.61038
 C2525 C 0.47300 0.49623 0.59235
 C2526 C 0.48555 0.48158 0.58484
 C2527 C 0.49135 0.46558 0.59611
 C2528 C 0.48391 0.46385 0.61424
 H2529 H 0.43969 0.50536 0.67402
 H2530 H 0.41702 0.50452 0.70006
 H2531 H 0.41590 0.44008 0.69650
 H2532 H 0.43764 0.44169 0.66976
 H2533 H 0.45564 0.50575 0.61563
 H2534 H 0.46834 0.50880 0.58408
 H2535 H 0.50085 0.45400 0.59065
 H2536 H 0.48788 0.45106 0.62252
 C2537 C 0.44457 0.51352 -0.16927
 C2538 C 0.43439 0.49637 -0.17492
 C2539 C 0.42117 0.49705 -0.18990
 C2540 C 0.41787 0.51496 -0.19940
 C2541 C 0.42856 0.53200 -0.19391
 C2542 C 0.44177 0.53128 -0.17894
 C2543 C 0.45668 0.51317 -0.15276
 C2544 C 0.46592 0.51261 -0.13841
 C2545 C 0.47558 0.51135 -0.12058
 C2546 C 0.47134 0.49515 -0.10917
 C2547 C 0.47832 0.49473 -0.09096
 C2548 C 0.48975 0.51051 -0.08381
 C2549 C 0.49484 0.52632 -0.09561
 C2550 C 0.48767 0.52679 -0.11390
 H2551 H 0.43629 0.48256 -0.16745
 H2552 H 0.41304 0.48374 -0.19364
 H2553 H 0.42658 0.54595 -0.20111
 H2554 H 0.44949 0.54467 -0.17468
 H2555 H 0.46198 0.48314 -0.11413
 H2556 H 0.47422 0.48229 -0.08226
 H2557 H 0.50346 0.53876 -0.09043
 H2558 H 0.49096 0.53948 -0.12257
 C2559 C -0.06137 1.01920 0.33035
 C2560 C -0.08090 1.02575 0.33276
 C2561 C -0.09370 1.02719 0.31756
 C2562 C -0.08717 1.02211 0.29962
 C2563 C -0.06751 1.01549 0.29730
 C2564 C -0.05470 1.01404 0.31258
 C2565 C -0.04862 1.01720 0.34634
 C2566 C -0.03889 1.01532 0.36031
 C2567 C -0.02862 1.01258 0.37769
 C2568 C -0.03302 0.99588 0.38840
 C2569 C -0.02530 0.99408 0.40629
 C2570 C -0.01297 1.00897 0.41381
 C2571 C -0.00781 1.02530 0.40266
 C2572 C -0.01570 1.02715 0.38472
 H2573 H -0.08632 1.02961 0.34645
 H2574 H -0.10881 1.03205 0.31988
 H2575 H -0.06196 1.01166 0.28367
 H2576 H -0.03964 1.00888 0.31053
 H2577 H -0.04301 0.98453 0.38318
 H2578 H -0.02949 0.98127 0.41446
 H2579 H 0.00150 1.03709 0.40813
 H2580 H -0.01228 1.04022 0.37661
 C2581 C 0.05759 0.47901 0.32788
 C2582 C 0.06769 0.49615 0.32222
 C2583 C 0.08058 0.49548 0.30703
 C2584 C 0.08362 0.47759 0.29731
 C2585 C 0.07307 0.46054 0.30286
 C2586 C 0.06018 0.46125 0.31806
 C2587 C 0.04571 0.47946 0.34450
 C2588 C 0.03665 0.48031 0.35892
 C2589 C 0.02716 0.48215 0.37675
 C2590 C 0.03152 0.49872 0.38776
 C2591 C 0.02440 0.49992 0.40588
 C2592 C 0.01272 0.48456 0.41334
 C2593 C 0.00763 0.46830 0.40197
 C2594 C 0.01494 0.46705 0.38377
 H2595 H 0.06594 0.50995 0.32982
 H2596 H 0.08862 0.50880 0.30326
 H2597 H 0.07485 0.44662 0.29549
 H2598 H 0.05251 0.44787 0.32233
 H2599 H 0.04097 0.51047 0.38252
 H2600 H 0.02849 0.51270 0.41422
 H2601 H -0.00119 0.45618 0.40740
 H2602 H 0.01155 0.45409 0.37540
 C2603 C 0.55608 -0.01593 -0.16831
 C2604 C 0.56603 0.00126 -0.17409
 C2605 C 0.57935 0.00047 -0.18895
 C2606 C 0.58299 -0.01757 -0.19823
 C2607 C 0.57258 -0.03468 -0.19258
 C2608 C 0.55926 -0.03386 -0.17771
 C2609 C 0.54375 -0.01533 -0.15197
 C2610 C 0.53432 -0.01438 -0.13776
 C2611 C 0.52441 -0.01246 -0.12013
 C2612 C 0.52852 0.00415 -0.10909
 C2613 C 0.52111 0.00536 -0.09107
 C2614 C 0.50937 -0.01003 -0.08373
 C2615 C 0.50448 -0.02631 -0.09516
 C2616 C 0.51208 -0.02756 -0.11326
 H2617 H 0.56383 0.01519 -0.16682
 H2618 H 0.58726 0.01385 -0.19280
 H2619 H 0.57481 -0.04874 -0.19961
 H2620 H 0.55172 -0.04728 -0.17335
 H2621 H 0.53804 0.01590 -0.11421
 H2622 H 0.52506 0.01814 -0.08267
 H2623 H 0.49563 -0.03845 -0.08983
 H2624 H 0.50888 -0.04056 -0.12165
 C2625 C 0.65709 0.62151 -0.00972
 C2626 C 0.65466 0.63820 0.00162
 C2627 C 0.67111 0.64950 0.00714
 C2628 C 0.69057 0.64433 0.00149
 C2629 C 0.69259 0.62769 -0.01046
 C2630 C 0.67607 0.61642 -0.01588
 C2631 C 0.64032 0.60876 -0.01364
 C2632 C 0.62623 0.59782 -0.01572
 C2633 C 0.60943 0.58447 -0.01637
 C2634 C 0.59654 0.58372 -0.03167
 C2635 C 0.57950 0.57162 -0.03116
 C2636 C 0.57516 0.56035 -0.01525
 C2637 C 0.58859 0.56082 -0.00028
 C2638 C 0.60551 0.57273 -0.00086
 H2639 H 0.64003 0.64236 0.00647
 H2640 H 0.66829 0.66253 0.01552
 H2641 H 0.70698 0.62243 -0.01487
 H2642 H 0.67820 0.60335 -0.02445
 H2643 H 0.59941 0.59276 -0.04377
 H2644 H 0.56942 0.57163 -0.04286
 H2645 H 0.58585 0.55221 0.01212
 H2646 H 0.61535 0.57312 0.01104
 C2647 C 0.15656 1.11673 0.48954
 C2648 C 0.15396 1.13501 0.49856
 C2649 C 0.17045 1.14600 0.50455
 C2650 C 0.18982 1.13882 0.50165
 C2651 C 0.19226 1.12057 0.49233
 C2652 C 0.17577 1.10963 0.48635
 C2653 C 0.13963 1.10443 0.48509
 C2654 C 0.12562 1.09355 0.48244
 C2655 C 0.10913 1.07991 0.48104
 C2656 C 0.09498 1.08125 0.46679
 C2657 C 0.07824 1.06873 0.46683
 C2658 C 0.07548 1.05498 0.48126
 C2659 C 0.09018 1.05334 0.49504
 C2660 C 0.10681 1.06566 0.49491
 H2661 H 0.13917 1.14060 0.50127
 H2662 H 0.16805 1.16008 0.51148
 H2663 H 0.20692 1.11443 0.49012
 H2664 H 0.17800 1.09538 0.47964
 H2665 H 0.09661 1.09225 0.45597
 H2666 H 0.06709 1.07039 0.45612
 H2667 H 0.08860 1.04280 0.50626
 H2668 H 0.11764 1.06441 0.50596
 C2669 C 0.15149 -0.11353 1.00176
 C2670 C 0.16157 -0.12388 1.01570
 C2671 C 0.17799 -0.13573 1.01122
 C2672 C 0.18454 -0.13739 0.99271
 C2673 C 0.17421 -0.12702 0.97884
 C2674 C 0.15785 -0.11520 0.98334
 C2675 C 0.13469 -0.10105 1.00608
 C2676 C 0.12055 -0.09033 1.00848
 C2677 C 0.10359 -0.07729 1.00954
 C2678 C 0.09918 -0.06543 0.99423
 C2679 C 0.08195 -0.05399 0.99397
 C2680 C 0.06874 -0.05413 1.00909
 C2681 C 0.07363 -0.06543 1.02483
 C2682 C 0.09095 -0.07706 1.02501
 H2683 H 0.15678 -0.12277 1.03000
 H2684 H 0.18547 -0.14369 1.02220
 H2685 H 0.17902 -0.12772 0.96452
 H2686 H 0.15022 -0.10723 0.97243
 H2687 H 0.10881 -0.06543 0.98220
 H2688 H 0.07875 -0.04535 0.98169
 H2689 H 0.06368 -0.06593 1.03662
 H2690 H 0.09419 -0.08621 1.03695
 C2691 C 0.65607 0.37791 0.50958
 C2692 C 0.67512 0.38257 0.51590
 C2693 C 0.69143 0.37114 0.51035
 C2694 C 0.68911 0.35475 0.49813
 C2695 C 0.66958 0.35002 0.49230
 C2696 C 0.65334 0.36148 0.49794
 C2697 C 0.63956 0.39083 0.51373
 C2698 C 0.62573 0.40196 0.51610
 C2699 C 0.60924 0.41557 0.51728
 C2700 C 0.60642 0.42916 0.50291
 C2701 C 0.58963 0.44122 0.50261
 C2702 C 0.57527 0.43999 0.51674
 C2703 C 0.57856 0.42692 0.53162
 C2704 C 0.59544 0.41468 0.53183
 H2705 H 0.67749 0.39543 0.52471
 H2706 H 0.70591 0.37609 0.51490
 H2707 H 0.66652 0.33721 0.48368
 H2708 H 0.63863 0.35767 0.49297
 H2709 H 0.61697 0.43004 0.49160
 H2710 H 0.58765 0.45122 0.49102
 H2711 H 0.56770 0.42555 0.54262
 H2712 H 0.59743 0.40419 0.54303
 C2713 C -0.15545 0.37676 0.49134
 C2714 C -0.16661 0.36594 0.47837
 C2715 C -0.18299 0.35466 0.48419
 C2716 C -0.18839 0.35407 0.50307
 C2717 C -0.17698 0.36494 0.51593
 C2718 C -0.16068 0.37615 0.51011
 C2719 C -0.13886 0.38895 0.48575
 C2720 C -0.12495 0.39978 0.48259
 C2721 C -0.10846 0.41339 0.48099
 C2722 C -0.10608 0.42786 0.49475
 C2723 C -0.08933 0.44001 0.49491
 C2724 C -0.07456 0.43801 0.48125
 C2725 C -0.07738 0.42405 0.46691
 C2726 C -0.09423 0.41168 0.46685
 H2727 H -0.16273 0.36628 0.46380
 H2728 H -0.19135 0.34633 0.47395
 H2729 H -0.18090 0.36515 0.53049
 H2730 H -0.15225 0.38454 0.52027
 H2731 H -0.11695 0.42937 0.50573
 H2732 H -0.08773 0.45074 0.50605
 H2733 H -0.06620 0.42213 0.45627
 H2734 H -0.09588 0.40049 0.45613
 C2735 C 0.33976 -0.11626 -0.00516
 C2736 C 0.32920 -0.12764 -0.01812
 C2737 C 0.31261 -0.13870 -0.01253
 C2738 C 0.30635 -0.13849 0.00612
 C2739 C 0.31723 -0.12715 0.01904
 C2740 C 0.33377 -0.11615 0.01343
 C2741 C 0.35649 -0.10422 -0.01067
 C2742 C 0.37047 -0.09353 -0.01397
 C2743 C 0.38702 -0.08006 -0.01594
 C2744 C 0.38930 -0.06498 -0.00275
 C2745 C 0.40615 -0.05297 -0.00285
 C2746 C 0.42110 -0.05573 -0.01622
 C2747 C 0.41837 -0.07027 -0.03005
 C2748 C 0.40142 -0.08250 -0.02983
 H2749 H 0.33369 -0.12788 -0.03254
 H2750 H 0.30471 -0.14745 -0.02279
 H2751 H 0.31267 -0.12641 0.03342
 H2752 H 0.34176 -0.10734 0.02359
 H2753 H 0.37830 -0.06290 0.00805
 H2754 H 0.40774 -0.04180 0.00791
 H2755 H 0.42972 -0.07280 -0.04042
 H2756 H 0.39984 -0.09417 -0.04011
 C2757 C 0.34608 1.11909 0.50564
 C2758 C 0.34053 1.11978 0.48693
 C2759 C 0.32412 1.13097 0.48137
 C2760 C 0.31292 1.14172 0.49445
 C2761 C 0.31877 1.14118 0.51322
 C2762 C 0.33523 1.12993 0.51876
 C2763 C 0.36257 1.10673 0.51111
 C2764 C 0.37632 1.09579 0.51446
 C2765 C 0.39262 1.08206 0.51657
 C2766 C 0.40689 1.08427 0.53064
 C2767 C 0.42362 1.07179 0.53106
 C2768 C 0.42626 1.05720 0.51726
 C2769 C 0.41141 1.05467 0.50372
 C2770 C 0.39478 1.06695 0.50341
 H2771 H 0.34873 1.11139 0.47664
 H2772 H 0.31988 1.13078 0.46688
 H2773 H 0.31063 1.14944 0.52362
 H2774 H 0.33937 1.12956 0.53328
 H2775 H 0.40541 1.09596 0.54090
 H2776 H 0.43489 1.07417 0.54156
 H2777 H 0.41293 1.04349 0.49297
 H2778 H 0.38388 1.06503 0.49248
 C2779 C -0.15246 0.62355 1.00655
 C2780 C -0.15048 0.64279 0.99945
 C2781 C -0.16732 0.65371 0.99445
 C2782 C -0.18644 0.64552 0.99642
 C2783 C -0.18830 0.62634 1.00398
 C2784 C -0.17144 0.61544 1.00896
 C2785 C -0.13505 0.61155 1.00976
 C2786 C -0.12045 0.60127 1.01130
 C2787 C -0.10305 0.58876 1.01142
 C2788 C -0.09070 0.58726 1.02703
 C2789 C -0.07333 0.57573 1.02626
 C2790 C -0.06810 0.56572 1.00979
 C2791 C -0.08093 0.56704 0.99440
 C2792 C -0.09817 0.57841 0.99523
 H2793 H -0.13590 0.64921 0.99740
 H2794 H -0.16537 0.66851 0.98891
 H2795 H -0.20276 0.61948 1.00546
 H2796 H -0.17319 0.60049 1.01422
 H2797 H -0.09431 0.59522 1.03967
 H2798 H -0.06377 0.57507 1.03832
 H2799 H -0.07754 0.55944 0.98153
 H2800 H -0.10758 0.57939 0.98307
 C2801 C -0.01541 0.64638 0.58090
 C2802 C -0.01637 0.66302 0.56938
 C2803 C -0.01276 0.68189 0.57666
 C2804 C -0.00806 0.68419 0.59553
 C2805 C -0.00814 0.66748 0.60717
 C2806 C -0.01174 0.64863 0.59986
 C2807 C -0.01600 0.62698 0.57285
 C2808 C -0.01557 0.61097 0.56552
 C2809 C -0.01436 0.59238 0.55600
 C2810 C -0.02662 0.58891 0.54073
 C2811 C -0.02451 0.57154 0.53041
 C2812 C -0.01002 0.55741 0.53525
 C2813 C 0.00212 0.56095 0.55080
 C2814 C -0.00003 0.57841 0.56110
 H2815 H -0.01905 0.66132 0.55463
 H2816 H -0.01259 0.69450 0.56738
 H2817 H -0.00481 0.66896 0.62181
 H2818 H -0.01092 0.63578 0.60883
 H2819 H -0.03762 0.59977 0.53662
 H2820 H -0.03416 0.56928 0.51857
 H2821 H 0.01335 0.55036 0.55491
 H2822 H 0.00964 0.58115 0.57285
 C2823 C 0.49642 0.15386 0.07612
 C2824 C 0.48866 0.17022 0.06663
 C2825 C 0.49646 0.18917 0.06988
 C2826 C 0.51224 0.19166 0.08239
 C2827 C 0.51934 0.17525 0.09236
 C2828 C 0.51148 0.15644 0.08921
 C2829 C 0.49118 0.13414 0.07067
 C2830 C 0.48845 0.11745 0.06542
 C2831 C 0.48687 0.09778 0.05811
 C2832 C 0.47281 0.09367 0.04441
 C2833 C 0.47339 0.07562 0.03496
 C2834 C 0.48816 0.06151 0.03906
 C2835 C 0.50175 0.06547 0.05341
 C2836 C 0.50113 0.08359 0.06284
 H2837 H 0.47715 0.16823 0.05628
 H2838 H 0.49076 0.20169 0.06215
 H2839 H 0.53124 0.17696 0.10236
 H2840 H 0.51766 0.14381 0.09646
 H2841 H 0.46188 0.10470 0.04054
 H2842 H 0.46258 0.07298 0.02410
 H2843 H 0.51323 0.05490 0.05694
 H2844 H 0.51222 0.08683 0.07332
 C2845 C -0.02226 0.14979 0.92284
 C2846 C -0.00644 0.16029 0.91506
 C2847 C -0.00716 0.18095 0.91408
 C2848 C -0.02373 0.19128 0.92095
 C2849 C -0.03957 0.18058 0.92876
 C2850 C -0.03880 0.15991 0.92973
 C2851 C -0.02078 0.12878 0.92521
 C2852 C -0.01898 0.11139 0.92833
 C2853 C -0.01608 0.09122 0.93373
 C2854 C 0.00235 0.08574 0.94095
 C2855 C 0.00456 0.06745 0.94961
 C2856 C -0.01167 0.05442 0.95110
 C2857 C -0.02984 0.05948 0.94277
 C2858 C -0.03207 0.07794 0.93422
 H2859 H 0.00651 0.15252 0.90988
 H2860 H 0.00506 0.18883 0.90768
 H2861 H -0.05245 0.18823 0.93421
 H2862 H -0.05097 0.15186 0.93604
 H2863 H 0.01475 0.09601 0.94072
 H2864 H 0.01877 0.06381 0.95575
 H2865 H -0.04258 0.04971 0.94382
 H2866 H -0.04644 0.08221 0.92881
 C2867 C 0.50450 0.64510 0.41830
 C2868 C 0.50603 0.66148 0.43018
 C2869 C 0.50498 0.68065 0.42305
 C2870 C 0.50237 0.68360 0.40392
 C2871 C 0.50136 0.66703 0.39201
 C2872 C 0.50240 0.64784 0.39920
 C2873 C 0.50432 0.62557 0.42599
 C2874 C 0.50403 0.60956 0.43323
 C2875 C 0.50382 0.59105 0.44286
 C2876 C 0.51667 0.58842 0.45783
 C2877 C 0.51603 0.57092 0.46801
 C2878 C 0.50247 0.55578 0.46333
 C2879 C 0.48965 0.55852 0.44814
 C2880 C 0.49031 0.57613 0.43797
 H2881 H 0.50761 0.65942 0.44501
 H2882 H 0.50553 0.69314 0.43254
 H2883 H 0.49957 0.66894 0.37720
 H2884 H 0.50125 0.63519 0.38993
 H2885 H 0.52708 0.59999 0.46176
 H2886 H 0.52616 0.56931 0.47958
 H2887 H 0.47905 0.54715 0.44419
 H2888 H 0.48021 0.57818 0.42644
 C2889 C 0.49975 0.84766 0.42452
 C2890 C 0.49230 0.83132 0.43428
 C2891 C 0.49931 0.81226 0.43028
 C2892 C 0.51399 0.80961 0.41671
 C2893 C 0.52070 0.82601 0.40646
 C2894 C 0.51362 0.84494 0.41037
 C2895 C 0.49550 0.86739 0.43062
 C2896 C 0.49346 0.88399 0.43636
 C2897 C 0.49247 0.90347 0.44417
 C2898 C 0.47853 0.90754 0.45796
 C2899 C 0.47932 0.92550 0.46755
 C2900 C 0.49416 0.93959 0.46348
 C2901 C 0.50773 0.93562 0.44915
 C2902 C 0.50691 0.91758 0.43958
 H2903 H 0.48172 0.83340 0.44542
 H2904 H 0.49396 0.79976 0.43828
 H2905 H 0.53177 0.82419 0.39570
 H2906 H 0.51956 0.85755 0.40288
 H2907 H 0.46745 0.89658 0.46170
 H2908 H 0.46854 0.92813 0.47840
 H2909 H 0.51928 0.94617 0.44567
 H2910 H 0.51790 0.91438 0.42903
 C2911 C 0.01915 0.35147 0.93343
 C2912 C 0.01309 0.33776 0.94686
 C2913 C 0.01544 0.31745 0.94363
 C2914 C 0.02394 0.31077 0.92697
 C2915 C 0.03007 0.32472 0.91364
 C2916 C 0.02771 0.34496 0.91690
 C2917 C 0.01635 0.37223 0.93649
 C2918 C 0.01387 0.38961 0.93930
 C2919 C 0.01072 0.41009 0.94351
 C2920 C -0.00720 0.41584 0.95159
 C2921 C -0.00948 0.43513 0.95823
 C2922 C 0.00621 0.44885 0.95685
 C2923 C 0.02378 0.44327 0.94773
 C2924 C 0.02605 0.42389 0.94115
 H2925 H 0.00644 0.34278 0.95972
 H2926 H 0.01062 0.30697 0.95407
 H2927 H 0.03623 0.31997 0.90049
 H2928 H 0.03234 0.35551 0.90643
 H2929 H -0.01912 0.40520 0.95344
 H2930 H -0.02323 0.43906 0.96507
 H2931 H 0.03614 0.45351 0.94660
 H2932 H 0.04000 0.41945 0.93494
 C2933 C 0.50697 0.35710 0.08768
 C2934 C 0.50484 0.35319 0.10659
 C2935 C 0.50349 0.33358 0.11269
 C2936 C 0.50419 0.31779 0.09987
 C2937 C 0.50688 0.32191 0.08096
 C2938 C 0.50826 0.34148 0.07491
 C2939 C 0.50701 0.37705 0.08099
 C2940 C 0.50689 0.39332 0.07426
 C2941 C 0.50690 0.41195 0.06484
 C2942 C 0.49114 0.42525 0.06700
 C2943 C 0.49033 0.44239 0.05615
 C2944 C 0.50522 0.44619 0.04295
 C2945 C 0.52119 0.43287 0.04124
 C2946 C 0.52199 0.41587 0.05211
 H2947 H 0.50388 0.36525 0.11653
 H2948 H 0.50164 0.33075 0.12736
 H2949 H 0.50718 0.31005 0.07078
 H2950 H 0.50985 0.34445 0.06023
 H2951 H 0.47929 0.42216 0.07672
 H2952 H 0.47787 0.45238 0.05778
 H2953 H 0.53299 0.43542 0.03134
 H2954 H 0.53415 0.40553 0.05027
 C2955 C 0.01139 0.84942 0.58214
 C2956 C -0.00081 0.84730 0.59766
 C2957 C -0.00850 0.82872 0.60209
 C2958 C -0.00409 0.81215 0.59096
 C2959 C 0.00931 0.81408 0.57619
 C2960 C 0.01693 0.83275 0.57171
 C2961 C 0.01486 0.86885 0.57498
 C2962 C 0.01598 0.88500 0.56811
 C2963 C 0.01563 0.90370 0.55885
 C2964 C 0.00137 0.91786 0.56371
 C2965 C -0.00095 0.93490 0.55296
 C2966 C 0.01092 0.93781 0.53717
 C2967 C 0.02552 0.92363 0.53269
 C2968 C 0.02781 0.90666 0.54346
 H2969 H -0.00534 0.86017 0.60566
 H2970 H -0.01861 0.82742 0.61370
 H2971 H 0.01285 0.80144 0.56747
 H2972 H 0.02615 0.83437 0.55950
 H2973 H -0.00830 0.91547 0.57549
 H2974 H -0.01222 0.94559 0.55684
 H2975 H 0.03502 0.92544 0.52071
 H2976 H 0.03867 0.89560 0.53947
 C2977 C 0.27490 0.31044 0.07888
 C2978 C 0.25702 0.31642 0.07079
 C2979 C 0.25703 0.32890 0.05527
 C2980 C 0.27504 0.33593 0.04759
 C2981 C 0.29296 0.32905 0.05563
 C2982 C 0.29284 0.31656 0.07109
 C2983 C 0.27484 0.29941 0.09602
 C2984 C 0.27448 0.29117 0.11087
 C2985 C 0.27322 0.28277 0.12922
 C2986 C 0.25774 0.28882 0.14079
 C2987 C 0.25694 0.28239 0.15912
 C2988 C 0.27164 0.26970 0.16632
 C2989 C 0.28688 0.26311 0.15448
 C2990 C 0.28772 0.26972 0.13602
 H2991 H 0.24299 0.31194 0.07682
 H2992 H 0.24280 0.33387 0.05015
 H2993 H 0.30727 0.33288 0.04989
 H2994 H 0.30680 0.31194 0.07714
 H2995 H 0.24646 0.29890 0.13574
 H2996 H 0.24487 0.28762 0.16775
 H2997 H 0.29842 0.25339 0.15963
 H2998 H 0.29984 0.26499 0.12720
 C2999 C 0.76613 0.81244 0.58341
 C3000 C 0.74976 0.82346 0.57732
 C3001 C 0.75129 0.83557 0.56161
 C3002 C 0.76929 0.83690 0.55180
 C3003 C 0.78554 0.82546 0.55783
 C3004 C 0.78396 0.81336 0.57351
 C3005 C 0.76495 0.80111 0.60036
 C3006 C 0.76392 0.79235 0.61494
 C3007 C 0.76238 0.78300 0.63289
 C3008 C 0.74654 0.78802 0.64451
 C3009 C 0.74592 0.78102 0.66271
 C3010 C 0.76114 0.76881 0.66965
 C3011 C 0.77657 0.76304 0.65764
 C3012 C 0.77723 0.77020 0.63938
 H3013 H 0.73590 0.82300 0.58493
 H3014 H 0.73858 0.84431 0.55746
 H3015 H 0.79951 0.82590 0.55043
 H3016 H 0.79675 0.80495 0.57807
 H3017 H 0.73498 0.79791 0.63969
 H3018 H 0.73379 0.78571 0.67154
 H3019 H 0.78859 0.75383 0.66262
 H3020 H 0.78964 0.76628 0.63056
 C3021 C 0.22832 0.68104 0.58538
 C3022 C 0.23613 0.68823 0.56869
 C3023 C 0.23605 0.67621 0.55276
 C3024 C 0.22814 0.65685 0.55336
 C3025 C 0.22056 0.64974 0.57027
 C3026 C 0.22065 0.66174 0.58611
 C3027 C 0.22870 0.69297 0.60204
 C3028 C 0.22923 0.70194 0.61656
 C3029 C 0.23047 0.71123 0.63459
 C3030 C 0.21483 0.72269 0.64169
 C3031 C 0.21545 0.72959 0.66009
 C3032 C 0.23164 0.72485 0.67158
 C3033 C 0.24755 0.71396 0.66404
 C3034 C 0.24696 0.70725 0.64574
 H3035 H 0.24224 0.70310 0.56797
 H3036 H 0.24182 0.68218 0.53992
 H3037 H 0.21466 0.63481 0.57128
 H3038 H 0.21478 0.65591 0.59898
 H3039 H 0.20191 0.72576 0.63321
 H3040 H 0.20295 0.73784 0.66554
 H3041 H 0.26031 0.71019 0.67246
 H3042 H 0.25912 0.69838 0.64046
 C3043 C 0.72869 0.19260 0.08241
 C3044 C 0.74566 0.18566 0.07336
 C3045 C 0.74400 0.17291 0.05804
 C3046 C 0.72520 0.16662 0.05141
 C3047 C 0.70821 0.17415 0.06063
 C3048 C 0.70998 0.18691 0.07592
 C3049 C 0.73049 0.20461 0.09898
 C3050 C 0.73219 0.21393 0.11326
 C3051 C 0.73461 0.22391 0.13089
 C3052 C 0.71988 0.23659 0.13787
 C3053 C 0.72139 0.24421 0.15597
 C3054 C 0.73754 0.23901 0.16734
 C3055 C 0.75266 0.22701 0.15986
 C3056 C 0.75120 0.21957 0.14181
 H3057 H 0.76027 0.18975 0.07839
 H3058 H 0.75763 0.16731 0.05213
 H3059 H 0.69337 0.17080 0.05586
 H3060 H 0.69669 0.19224 0.08275
 H3061 H 0.70690 0.24000 0.12961
 H3062 H 0.70942 0.25323 0.16139
 H3063 H 0.76531 0.22275 0.16822
 H3064 H 0.76268 0.20977 0.13662
 C3065 C 0.76576 0.19490 0.92028
 C3066 C 0.78347 0.19117 0.92978
 C3067 C 0.78372 0.17797 0.94474
 C3068 C 0.76624 0.16820 0.95040
 C3069 C 0.74841 0.17241 0.94103
 C3070 C 0.74820 0.18561 0.92606
 C3071 C 0.76577 0.20706 0.90380
 C3072 C 0.76541 0.21632 0.88948
 C3073 C 0.76423 0.22598 0.87165
 C3074 C 0.77973 0.23797 0.86501
 C3075 C 0.77929 0.24508 0.84670
 C3076 C 0.76345 0.24001 0.83486
 C3077 C 0.74762 0.22871 0.84198
 C3078 C 0.74800 0.22182 0.86019
 H3079 H 0.79717 0.19819 0.92542
 H3080 H 0.79764 0.17532 0.95182
 H3081 H 0.73475 0.16500 0.94488
 H3082 H 0.73442 0.18822 0.91873
 H3083 H 0.79244 0.24122 0.87372
 H3084 H 0.79177 0.25357 0.84152
 H3085 H 0.73518 0.22462 0.83323
 H3086 H 0.73595 0.21255 0.86511
 C3087 C 0.27469 0.68632 0.42030
 C3088 C 0.29169 0.68408 0.43124
 C3089 C 0.29127 0.67174 0.44682
 C3090 C 0.27385 0.66135 0.45163
 C3091 C 0.25667 0.66417 0.44088
 C3092 C 0.25712 0.67653 0.42530
 C3093 C 0.27555 0.69733 0.40318
 C3094 C 0.27571 0.70554 0.38831
 C3095 C 0.27478 0.71381 0.36990
 C3096 C 0.28893 0.72747 0.36344
 C3097 C 0.28819 0.73417 0.34499
 C3098 C 0.27340 0.72707 0.33285
 C3099 C 0.25909 0.71370 0.33972
 C3100 C 0.25979 0.70719 0.35801
 H3101 H 0.30538 0.69151 0.42752
 H3102 H 0.30466 0.67014 0.45499
 H3103 H 0.24310 0.65627 0.44409
 H3104 H 0.24390 0.67801 0.41686
 H3105 H 0.30067 0.73266 0.37252
 H3106 H 0.29942 0.74442 0.34011
 H3107 H 0.24734 0.70807 0.33088
 H3108 H 0.24876 0.69665 0.36280
 C3109 C 0.73470 0.81355 0.41543
 C3110 C 0.71666 0.81501 0.42495
 C3111 C 0.71509 0.82718 0.44066
 C3112 C 0.73155 0.83817 0.44710
 C3113 C 0.74969 0.83640 0.43758
 C3114 C 0.75123 0.82422 0.42185
 C3115 C 0.73607 0.80191 0.39859
 C3116 C 0.73741 0.79286 0.38412
 C3117 C 0.73944 0.78315 0.36631
 C3118 C 0.75533 0.78833 0.35484
 C3119 C 0.75641 0.78095 0.33674
 C3120 C 0.74161 0.76816 0.32976
 C3121 C 0.72615 0.76221 0.34165
 C3122 C 0.72502 0.76976 0.35980
 H3123 H 0.70375 0.80688 0.42012
 H3124 H 0.70099 0.82795 0.44782
 H3125 H 0.76258 0.84479 0.44202
 H3126 H 0.76524 0.82335 0.41454
 H3127 H 0.76657 0.79867 0.35966
 H3128 H 0.76853 0.78580 0.32799
 H3129 H 0.71442 0.75257 0.33663
 H3130 H 0.71258 0.76569 0.36851
 C3131 C 0.22887 0.30729 0.91886
 C3132 C 0.21124 0.31095 0.92854
 C3133 C 0.21109 0.32423 0.94353
 C3134 C 0.22858 0.33416 0.94904
 C3135 C 0.24630 0.33006 0.93945
 C3136 C 0.24641 0.31677 0.92447
 C3137 C 0.22884 0.29493 0.90244
 C3138 C 0.22936 0.28548 0.88816
 C3139 C 0.23094 0.27558 0.87041
 C3140 C 0.24733 0.27978 0.85921
 C3141 C 0.24824 0.27245 0.84112
 C3142 C 0.23277 0.26069 0.83385
 C3143 C 0.21675 0.25564 0.84543
 C3144 C 0.21579 0.26318 0.86362
 H3145 H 0.19755 0.30378 0.92433
 H3146 H 0.19726 0.32681 0.95078
 H3147 H 0.25996 0.33760 0.94316
 H3148 H 0.26013 0.31422 0.91700
 H3149 H 0.25913 0.28933 0.86425
 H3150 H 0.26082 0.27652 0.83259
 H3151 H 0.20456 0.24677 0.84014
 H3152 H 0.20296 0.25989 0.87213
 C3153 C 0.86761 0.40994 0.75683
 C3154 C 0.88582 0.40740 0.74777
 C3155 C 0.89683 0.42395 0.74202
 C3156 C 0.88975 0.44332 0.74522
 C3157 C 0.87158 0.44570 0.75461
 C3158 C 0.86060 0.42915 0.76033
 C3159 C 0.85538 0.39292 0.76111
 C3160 C 0.84477 0.37869 0.76365
 C3161 C 0.83171 0.36171 0.76503
 C3162 C 0.81881 0.35768 0.75031
 C3163 C 0.80726 0.34048 0.75031
 C3164 C 0.80832 0.32692 0.76510
 C3165 C 0.82068 0.33142 0.78030
 C3166 C 0.83242 0.34871 0.78021
 H3167 H 0.89136 0.39262 0.74485
 H3168 H 0.91084 0.42158 0.73503
 H3169 H 0.86553 0.46037 0.75706
 H3170 H 0.84643 0.43134 0.76711
 H3171 H 0.81806 0.36759 0.73852
 H3172 H 0.79780 0.33755 0.73845
 H3173 H 0.82192 0.32119 0.79180
 H3174 H 0.84238 0.35166 0.79169
 C3175 C 0.37131 0.90333 0.25929
 C3176 C 0.36615 0.92177 0.26677
 C3177 C 0.37619 0.93900 0.26128
 C3178 C 0.39165 0.93826 0.24796
 C3179 C 0.39691 0.91933 0.24092
 C3180 C 0.38683 0.90215 0.24650
 C3181 C 0.35963 0.88589 0.26349
 C3182 C 0.34931 0.87143 0.26596
 C3183 C 0.33631 0.85440 0.26726
 C3184 C 0.32103 0.85241 0.25427
 C3185 C 0.30924 0.83538 0.25398
 C3186 C 0.31245 0.81991 0.26672
 C3187 C 0.32731 0.82228 0.28029
 C3188 C 0.33927 0.83943 0.28048
 H3189 H 0.35394 0.92295 0.27648
 H3190 H 0.37084 0.95293 0.26681
 H3191 H 0.40912 0.91745 0.23136
 H3192 H 0.39101 0.88794 0.24059
 H3193 H 0.31853 0.86386 0.24400
 H3194 H 0.29783 0.83414 0.24344
 H3195 H 0.33020 0.81058 0.29020
 H3196 H 0.35108 0.84077 0.29061
 C3197 C 0.12553 0.89508 0.74392
 C3198 C 0.10639 0.89397 0.75142
 C3199 C 0.09616 0.91134 0.75626
 C3200 C 0.10497 0.93011 0.75372
 C3201 C 0.12409 0.93106 0.74587
 C3202 C 0.13427 0.91370 0.74105
 C3203 C 0.13690 0.87721 0.74076
 C3204 C 0.14687 0.86238 0.73926
 C3205 C 0.15930 0.84492 0.73925
 C3206 C 0.16111 0.83254 0.72363
 C3207 C 0.17300 0.81540 0.72441
 C3208 C 0.18310 0.81046 0.74087
 C3209 C 0.18131 0.82326 0.75630
 C3210 C 0.16957 0.84023 0.75547
 H3211 H 0.09950 0.87966 0.75386
 H3212 H 0.08139 0.91007 0.76204
 H3213 H 0.13145 0.94522 0.74397
 H3214 H 0.14917 0.91479 0.73550
 H3215 H 0.15323 0.83603 0.71095
 H3216 H 0.17402 0.80589 0.71231
 H3217 H 0.18893 0.82013 0.76919
 H3218 H 0.16838 0.84968 0.76762
 C3219 C 0.62842 0.40677 0.24185
 C3220 C 0.63644 0.42563 0.23856
 C3221 C 0.62612 0.44269 0.24406
 C3222 C 0.60761 0.44117 0.25303
 C3223 C 0.59950 0.42215 0.25595
 C3224 C 0.60984 0.40511 0.25042
 C3225 C 0.64003 0.38920 0.23810
 C3226 C 0.65008 0.37447 0.23622
 C3227 C 0.66237 0.35692 0.23596
 C3228 C 0.67096 0.35078 0.25260
 C3229 C 0.68233 0.33355 0.25324
 C3230 C 0.68543 0.32195 0.23719
 C3231 C 0.67711 0.32839 0.22032
 C3232 C 0.66557 0.34578 0.21973
 H3233 H 0.65092 0.42714 0.23218
 H3234 H 0.63295 0.45705 0.24183
 H3235 H 0.58520 0.42046 0.26260
 H3236 H 0.60353 0.39061 0.25319
 H3237 H 0.66869 0.35926 0.26523
 H3238 H 0.68860 0.32926 0.26646
 H3239 H 0.67918 0.31980 0.20774
 H3240 H 0.65900 0.35039 0.20673
 C3241 C 0.63198 0.59862 0.25715
 C3242 C 0.63933 0.57953 0.26047
 C3243 C 0.62831 0.56279 0.25520
 C3244 C 0.60972 0.56487 0.24645
 C3245 C 0.60229 0.58413 0.24346
 C3246 C 0.61335 0.60086 0.24876
 C3247 C 0.64424 0.61583 0.26083
 C3248 C 0.65485 0.63019 0.26276
 C3249 C 0.66787 0.64726 0.26325
 C3250 C 0.66897 0.65991 0.27875
 C3251 C 0.68082 0.67714 0.27816
 C3252 C 0.69147 0.68190 0.26198
 C3253 C 0.69067 0.66870 0.24680
 C3254 C 0.67902 0.65160 0.24746
 H3255 H 0.65383 0.57757 0.26671
 H3256 H 0.63462 0.54823 0.25746
 H3257 H 0.58797 0.58626 0.23696
 H3258 H 0.60754 0.61554 0.24597
 H3259 H 0.66040 0.65671 0.29108
 H3260 H 0.68107 0.68704 0.29002
 H3261 H 0.69881 0.67178 0.23418
 H3262 H 0.67837 0.64195 0.23541
 C3263 C 0.13235 0.08730 0.75669
 C3264 C 0.13935 0.06814 0.76035
 C3265 C 0.12835 0.05149 0.75478
 C3266 C 0.11016 0.05371 0.74537
 C3267 C 0.10310 0.07304 0.74200
 C3268 C 0.11412 0.08968 0.74760
 C3269 C 0.14455 0.10441 0.76093
 C3270 C 0.15513 0.11870 0.76348
 C3271 C 0.16817 0.13571 0.76494
 C3272 C 0.16677 0.14932 0.77968
 C3273 C 0.17850 0.16663 0.77978
 C3274 C 0.19156 0.17054 0.76500
 C3275 C 0.19333 0.15637 0.75069
 C3276 C 0.18177 0.13917 0.75069
 H3277 H 0.15353 0.06606 0.76717
 H3278 H 0.13438 0.03686 0.75736
 H3279 H 0.08906 0.07529 0.73499
 H3280 H 0.10858 0.10441 0.74456
 H3281 H 0.15627 0.14683 0.79081
 H3282 H 0.17671 0.17732 0.79091
 H3283 H 0.20333 0.15884 0.73916
 H3284 H 0.18307 0.12879 0.73923
 C3285 C 0.37137 0.09657 0.24545
 C3286 C 0.37146 0.09091 0.26412
 C3287 C 0.38179 0.07398 0.26976
 C3288 C 0.39225 0.06236 0.25681
 C3289 C 0.39226 0.06826 0.23807
 C3290 C 0.38188 0.08525 0.23243
 C3291 C 0.35991 0.11367 0.23991
 C3292 C 0.34965 0.12793 0.23655
 C3293 C 0.33656 0.14474 0.23443
 C3294 C 0.34017 0.15975 0.22137
 C3295 C 0.32817 0.17683 0.22103
 C3296 C 0.31265 0.17907 0.23391
 C3297 C 0.30877 0.16355 0.24643
 C3298 C 0.32058 0.14658 0.24665
 H3299 H 0.36330 0.09947 0.27432
 H3300 H 0.38118 0.06973 0.28422
 H3301 H 0.40035 0.05979 0.22777
 H3302 H 0.38194 0.08944 0.21794
 H3303 H 0.35254 0.15853 0.21186
 H3304 H 0.33156 0.18861 0.21134
 H3305 H 0.29685 0.16474 0.25644
 H3306 H 0.31759 0.13512 0.25679
 C3307 C 0.87281 0.60126 0.74106
 C3308 C 0.89187 0.60290 0.74871
 C3309 C 0.90233 0.58585 0.75397
 C3310 C 0.89384 0.56687 0.75170
 C3311 C 0.87481 0.56538 0.74371
 C3312 C 0.86439 0.58243 0.73847
 C3313 C 0.86117 0.61884 0.73755
 C3314 C 0.85099 0.63349 0.73585
 C3315 C 0.83842 0.65084 0.73578
 C3316 C 0.83601 0.66275 0.71998
 C3317 C 0.82421 0.67996 0.72083
 C3318 C 0.81488 0.68545 0.73755
 C3319 C 0.81714 0.67305 0.75312
 C3320 C 0.82875 0.65599 0.75222
 H3321 H 0.89850 0.61739 0.75095
 H3322 H 0.91703 0.58752 0.75987
 H3323 H 0.86769 0.55106 0.74203
 H3324 H 0.84955 0.58094 0.73284
 H3325 H 0.84341 0.65889 0.70714
 H3326 H 0.82280 0.68919 0.70863
 H3327 H 0.81005 0.67661 0.76619
 H3328 H 0.83039 0.64690 0.76450
 C3329 C 0.89252 0.76666 0.16214
 C3330 C 0.90044 0.78570 0.16402
 C3331 C 0.92085 0.78866 0.16266
 C3332 C 0.93381 0.77251 0.15943
 C3333 C 0.92539 0.75338 0.15726
 C3334 C 0.90494 0.75053 0.15864
 C3335 C 0.87200 0.76344 0.16608
 C3336 C 0.85516 0.76094 0.17090
 C3337 C 0.83582 0.75816 0.17856
 C3338 C 0.82180 0.77341 0.17760
 C3339 C 0.80446 0.77225 0.18813
 C3340 C 0.80119 0.75591 0.19986
 C3341 C 0.81497 0.74025 0.20000
 C3342 C 0.83219 0.74140 0.18941
 H3343 H 0.89090 0.79821 0.16719
 H3344 H 0.92636 0.80352 0.16519
 H3345 H 0.93436 0.74054 0.15399
 H3346 H 0.89885 0.73568 0.15729
 H3347 H 0.82467 0.78656 0.16940
 H3348 H 0.79410 0.78453 0.18772
 H3349 H 0.81277 0.72738 0.20873
 H3350 H 0.84311 0.72964 0.19035
 C3351 C 0.39891 0.26396 0.68102
 C3352 C 0.40849 0.28171 0.68572
 C3353 C 0.42878 0.28384 0.68244
 C3354 C 0.43963 0.26818 0.67449
 C3355 C 0.42987 0.25035 0.66992
 C3356 C 0.40960 0.24826 0.67320
 C3357 C 0.37832 0.26145 0.68508
 C3358 C 0.36126 0.25896 0.68921
 C3359 C 0.34138 0.25552 0.69530
 C3360 C 0.32673 0.26994 0.69275
 C3361 C 0.30803 0.26739 0.70075
 C3362 C 0.30401 0.25046 0.71150
 C3363 C 0.31864 0.23574 0.71335
 C3364 C 0.33721 0.23827 0.70528
 H3365 H 0.40031 0.29384 0.69198
 H3366 H 0.43601 0.29768 0.68616
 H3367 H 0.43782 0.23819 0.66347
 H3368 H 0.40226 0.23443 0.66964
 H3369 H 0.32995 0.28340 0.68511
 H3370 H 0.29706 0.27901 0.69918
 H3371 H 0.31592 0.22248 0.72143
 H3372 H 0.34853 0.22708 0.70733
 C3373 C 0.40349 0.73908 0.81633
 C3374 C 0.41399 0.75367 0.82607
 C3375 C 0.43404 0.75087 0.83006
 C3376 C 0.44371 0.73341 0.82430
 C3377 C 0.43312 0.71905 0.81413
 C3378 C 0.41308 0.72189 0.81017
 C3379 C 0.38280 0.74158 0.81273
 C3380 C 0.36547 0.74335 0.80932
 C3381 C 0.34502 0.74510 0.80439
 C3382 C 0.33891 0.76103 0.79345
 C3383 C 0.31964 0.76151 0.78650
 C3384 C 0.30628 0.74599 0.79039
 C3385 C 0.31230 0.73049 0.80214
 C3386 C 0.33164 0.73003 0.80905
 H3387 H 0.40662 0.76703 0.83085
 H3388 H 0.44179 0.76200 0.83818
 H3389 H 0.44030 0.70554 0.80948
 H3390 H 0.40501 0.71059 0.80251
 H3391 H 0.34925 0.77272 0.78976
 H3392 H 0.31542 0.77373 0.77760
 H3393 H 0.30237 0.71831 0.80535
 H3394 H 0.33636 0.71759 0.81746
 C3395 C 0.89116 0.24102 0.33250
 C3396 C 0.90446 0.25646 0.33610
 C3397 C 0.92463 0.25241 0.33824
 C3398 C 0.93183 0.23274 0.33679
 C3399 C 0.91802 0.21738 0.33312
 C3400 C 0.89793 0.22153 0.33102
 C3401 C 0.87082 0.24517 0.32859
 C3402 C 0.85395 0.24799 0.32403
 C3403 C 0.83438 0.25062 0.31687
 C3404 C 0.83038 0.26705 0.30573
 C3405 C 0.81280 0.26783 0.29560
 C3406 C 0.79907 0.25209 0.29648
 C3407 C 0.80274 0.23613 0.30853
 C3408 C 0.82040 0.23537 0.31862
 H3409 H 0.89927 0.27165 0.33713
 H3410 H 0.93429 0.26472 0.34169
 H3411 H 0.92268 0.20217 0.33102
 H3412 H 0.88772 0.20955 0.32777
 H3413 H 0.84126 0.27881 0.30418
 H3414 H 0.81033 0.28043 0.28659
 H3415 H 0.79244 0.22382 0.30954
 H3416 H 0.82356 0.22248 0.32707
 C3417 C 0.09335 0.25488 0.30784
 C3418 C 0.08310 0.23972 0.31696
 C3419 C 0.06366 0.24285 0.32289
 C3420 C 0.05437 0.26122 0.31976
 C3421 C 0.06458 0.27612 0.31005
 C3422 C 0.08400 0.27295 0.30412
 C3423 C 0.11372 0.25227 0.30292
 C3424 C 0.13085 0.25048 0.29876
 C3425 C 0.15119 0.24874 0.29340
 C3426 C 0.15679 0.23382 0.28099
 C3427 C 0.17621 0.23309 0.27443
 C3428 C 0.19024 0.24734 0.28022
 C3429 C 0.18461 0.26191 0.29320
 C3430 C 0.16513 0.26262 0.29972
 H3431 H 0.09030 0.22569 0.31989
 H3432 H 0.05620 0.23124 0.33057
 H3433 H 0.05765 0.29034 0.30738
 H3434 H 0.09187 0.28473 0.29700
 H3435 H 0.14604 0.22304 0.27605
 H3436 H 0.18009 0.22161 0.26453
 H3437 H 0.19505 0.27312 0.29787
 H3438 H 0.16082 0.27425 0.30932
 C3439 C 0.60735 0.76238 0.83234
 C3440 C 0.59572 0.74698 0.83942
 C3441 C 0.57534 0.74968 0.84163
 C3442 C 0.56648 0.76780 0.83669
 C3443 C 0.57833 0.78317 0.82958
 C3444 C 0.59867 0.78045 0.82740
 C3445 C 0.62794 0.75930 0.82874
 C3446 C 0.64498 0.75705 0.82449
 C3447 C 0.66474 0.75476 0.81771
 C3448 C 0.66932 0.73819 0.80685
 C3449 C 0.68712 0.73756 0.79709
 C3450 C 0.70051 0.75358 0.79808
 C3451 C 0.69628 0.76970 0.80989
 C3452 C 0.67838 0.77031 0.81959
 H3453 H 0.60236 0.73288 0.84309
 H3454 H 0.56655 0.73772 0.84741
 H3455 H 0.57181 0.79720 0.82553
 H3456 H 0.60760 0.79233 0.82165
 H3457 H 0.65872 0.72618 0.80522
 H3458 H 0.69005 0.72485 0.78827
 H3459 H 0.70631 0.78224 0.81094
 H3460 H 0.67479 0.78330 0.82783
 C3461 C 0.60252 0.23304 0.67984
 C3462 C 0.59170 0.24858 0.67199
 C3463 C 0.57132 0.24653 0.66926
 C3464 C 0.56161 0.22890 0.67442
 C3465 C 0.57259 0.21344 0.68248
 C3466 C 0.59297 0.21553 0.68520
 C3467 C 0.62326 0.23548 0.68329
 C3468 C 0.64044 0.23789 0.68700
 C3469 C 0.66045 0.24129 0.69276
 C3470 C 0.66520 0.25932 0.70129
 C3471 C 0.68365 0.26185 0.70963
 C3472 C 0.69757 0.24632 0.70950
 C3473 C 0.69309 0.22859 0.70002
 C3474 C 0.67449 0.22605 0.69176
 H3475 H 0.59902 0.26224 0.66795
 H3476 H 0.56325 0.25851 0.66272
 H3477 H 0.56539 0.19976 0.68663
 H3478 H 0.60127 0.20354 0.69151
 H3479 H 0.65434 0.27115 0.70216
 H3480 H 0.68678 0.27574 0.71669
 H3481 H 0.70352 0.21637 0.69980
 H3482 H 0.67081 0.21197 0.68527
 C3483 C 0.09244 0.74116 0.19426
 C3484 C 0.08296 0.75675 0.18509
 C3485 C 0.06354 0.75437 0.17881
 C3486 C 0.05344 0.73634 0.18164
 C3487 C 0.06289 0.72098 0.19138
 C3488 C 0.08233 0.72339 0.19766
 C3489 C 0.11280 0.74316 0.19949
 C3490 C 0.12994 0.74484 0.20374
 C3491 C 0.15029 0.74685 0.20901
 C3492 C 0.15577 0.76173 0.22154
 C3493 C 0.17535 0.76308 0.22762
 C3494 C 0.18967 0.74950 0.22121
 C3495 C 0.18411 0.73493 0.20817
 C3496 C 0.16447 0.73360 0.20214
 H3497 H 0.09076 0.77053 0.18239
 H3498 H 0.05673 0.76631 0.17107
 H3499 H 0.05534 0.70700 0.19381
 H3500 H 0.08961 0.71128 0.20480
 H3501 H 0.14484 0.77206 0.22687
 H3502 H 0.17916 0.77452 0.23760
 H3503 H 0.19477 0.72422 0.20304
 H3504 H 0.16027 0.72204 0.19240
   
