data_POSCAR
  _audit_creation_date              2014-09-24
  _audit_creation_method            'ToBaCCo'
  _symmetry_space_group_name_H-M    'P1'
  _symmetry_Int_Tables_number       1
  _symmetry_cell_setting            triclinic
  loop_
  _symmetry_equiv_pos_as_xyz
 x,y,z
_cell_length_a 63.6904
_cell_length_b 63.6902
_cell_length_c 63.6904
_cell_angle_alpha 89.995900
_cell_angle_beta 89.992000
_cell_angle_gamma 89.998000
loop_
  _atom_site_label
  _atom_site_type_symbol
  _atom_site_fract_x
  _atom_site_fract_y
  _atom_site_fract_z
N1 N 0.35059 1.35032 0.35036
 N2 N 0.35031 0.85011 0.85036
 N3 N 0.85052 1.35054 0.85032
 N4 N 0.85039 0.85037 0.35019
 N5 N 0.65005 0.64974 0.35030
 N6 N 0.64960 0.14958 0.85008
 N7 N 1.15007 0.64976 0.85038
 N8 N 1.14970 0.14982 0.35023
 N9 N 0.64997 1.35021 0.64973
 N10 N 0.64986 0.85037 1.14962
 N11 N 1.14993 1.35013 1.14967
 N12 N 1.14974 0.85036 0.64948
 N13 N 0.35059 0.64960 0.64976
 N14 N 0.35033 0.14974 1.14965
 N15 N 0.85067 0.64972 1.14986
 N16 N 0.85029 0.14967 0.64969
 N17 N 1.35061 0.35032 0.64951
 N18 N 1.35047 0.85013 1.14968
 N19 N 0.85047 0.35034 1.14990
 N20 N 0.85039 0.85039 0.64980
 N21 N 0.65004 0.64963 0.64969
 N22 N 0.64971 1.14964 1.14958
 N23 N 0.15000 0.64968 1.14960
 N24 N 0.14981 1.14975 0.64969
 N25 N 1.35067 0.64982 0.35040
 N26 N 1.35026 1.14962 0.85033
 N27 N 0.85048 0.64964 0.85037
 N28 N 0.85040 1.14990 0.35022
 N29 N 0.64997 0.35039 0.35007
 N30 N 0.64983 0.85029 0.85013
 N31 N 0.14974 0.35019 0.85029
 N32 N 0.14984 0.85038 0.35041
 O33 O 0.97929 0.92418 0.89555
 O34 O 0.97915 0.89975 0.87101
 C35 C 0.97207 0.91686 0.87846
 C36 C 0.95495 0.92815 0.86746
 C37 C 0.94783 0.92133 0.84773
 H38 H 0.95535 0.90805 0.84024
 O39 O 1.02011 1.07656 0.89584
 O40 O 1.02007 1.10115 0.87146
 C41 C 1.02722 1.08401 0.87875
 C42 C 1.04424 1.07280 0.86752
 C43 C 1.05129 1.07986 0.84785
 H44 H 1.04376 1.09327 0.84059
 O45 O 0.89527 0.97998 0.92422
 O46 O 0.87073 0.98002 0.89979
 C47 C 0.87813 0.97288 0.91689
 C48 C 0.86706 0.95578 0.92814
 C49 C 0.84732 0.94868 0.92128
 H50 H 0.83984 0.95626 0.90802
 O51 O 1.10396 1.02058 0.92343
 O52 O 1.12834 1.02072 0.89884
 C53 C 1.12103 1.02776 0.91603
 C54 C 1.13223 1.04473 0.92733
 C55 C 1.15190 1.05181 0.92033
 H56 H 1.15917 1.04434 0.90689
 O57 O 0.92394 0.89579 0.97942
 O58 O 0.89944 0.87133 0.97943
 C59 C 0.91654 0.87871 0.97227
 C60 C 0.92772 0.86761 0.95515
 C61 C 0.92072 0.84794 0.94807
 H62 H 0.90738 0.84059 0.95565
 O63 O 1.07614 1.10414 0.97956
 O64 O 1.10069 1.12856 0.97952
 C65 C 1.08354 1.12124 0.97242
 C66 C 1.07228 1.13245 0.95543
 C67 C 1.07932 1.15212 0.94836
 H68 H 1.09275 1.15937 0.95584
 O69 O 0.92421 1.02081 0.89547
 O70 O 0.89985 1.02088 0.87088
 C71 C 0.91691 1.02802 0.87837
 C72 C 0.92811 1.04525 0.86745
 C73 C 0.92133 1.05238 0.84770
 H74 H 0.90819 1.04471 0.84010
 O75 O 1.07506 0.97979 0.89460
 O76 O 1.09931 0.97988 0.86988
 C77 C 1.08230 0.97269 0.87742
 C78 C 1.07107 0.95549 0.86649
 C79 C 1.07783 0.94838 0.84672
 H80 H 1.09097 0.95605 0.83911
 O81 O 1.02044 0.89552 0.92413
 O82 O 1.02035 0.87095 0.89973
 C83 C 1.02762 0.87845 0.91674
 C84 C 1.04493 0.86751 0.92780
 C85 C 1.05209 0.84786 0.92080
 H86 H 1.04441 0.84039 0.90760
 O87 O 0.97925 1.10517 0.92491
 O88 O 0.97918 1.12989 0.90067
 C89 C 0.97206 1.12232 0.91770
 C90 C 0.95487 1.13322 0.92898
 C91 C 0.94775 1.15299 0.92226
 H92 H 0.95539 1.16061 0.90911
 O93 O 0.89501 1.07575 0.98001
 O94 O 0.87036 1.10007 0.98017
 C95 C 0.87786 1.08307 0.97291
 C96 C 0.86693 1.07194 0.95565
 C97 C 0.84720 1.07877 0.94851
 H98 H 0.83961 1.09192 0.95618
 O99 O 1.10483 0.92462 0.97891
 O100 O 1.12948 0.90031 0.97869
 C101 C 1.12191 0.91736 0.97161
 C102 C 1.13272 0.92860 0.95434
 C103 C 1.15247 0.92187 0.94716
 H104 H 1.16011 0.90875 0.95481
 O105 O 0.97918 1.07651 0.89604
 O106 O 0.97909 1.10110 0.87166
 C107 C 0.97198 1.08395 0.87900
 C108 C 0.95491 1.07273 0.86787
 C109 C 0.94781 1.07973 0.84820
 H110 H 0.95533 1.09312 0.84089
 O111 O 1.02020 0.92413 0.89526
 O112 O 1.02011 0.89969 0.87074
 C113 C 1.02726 0.91679 0.87811
 C114 C 1.04427 0.92804 0.86693
 C115 C 1.05133 0.92106 0.84724
 H116 H 1.04380 0.90767 0.83994
 O117 O 1.10394 0.97965 0.92322
 O118 O 1.12833 0.97974 0.89864
 C119 C 1.12102 0.97254 0.91575
 C120 C 1.13220 0.95544 0.92690
 C121 C 1.15187 0.94838 0.91984
 H122 H 1.15915 0.95593 0.90645
 O123 O 0.89550 1.02090 0.92428
 O124 O 0.87100 1.02098 0.89982
 C125 C 0.87842 1.02809 0.91692
 C126 C 0.86732 1.04516 0.92817
 C127 C 0.84768 1.05230 0.92116
 H128 H 0.84037 1.04480 0.90777
 O129 O 0.92373 1.10451 0.98001
 O130 O 0.89923 1.12897 0.98017
 C131 C 0.91632 1.12162 0.97294
 C132 C 0.92749 1.13279 0.95587
 C133 C 0.92049 1.15248 0.94883
 H134 H 0.90713 1.15979 0.95640
 O135 O 1.07623 0.89569 0.97904
 O136 O 1.10074 0.87122 0.97882
 C137 C 1.08357 0.87860 0.97182
 C138 C 1.07223 0.86753 0.95478
 C139 C 1.07906 0.84779 0.94766
 H140 H 1.09240 0.84035 0.95515
 O141 O 1.07502 1.02077 0.89486
 O142 O 1.09926 1.02090 0.87013
 C143 C 1.08225 1.02804 0.87775
 C144 C 1.07103 1.04532 0.86695
 C145 C 1.07775 1.05250 0.84720
 H146 H 1.09085 1.04484 0.83953
 O147 O 0.92416 0.97980 0.89560
 O148 O 0.89975 0.97983 0.87104
 C149 C 0.91678 0.97261 0.87853
 C150 C 0.92788 0.95535 0.86756
 C151 C 0.92087 0.94822 0.84790
 H152 H 0.90763 0.95587 0.84047
 O153 O 1.02023 1.10507 0.92483
 O154 O 1.02021 1.12979 0.90059
 C155 C 1.02742 1.12220 0.91758
 C156 C 1.04472 1.13302 0.92874
 C157 C 1.05188 1.15277 0.92198
 H158 H 1.04418 1.16043 0.90889
 O159 O 0.97943 0.89534 0.92425
 O160 O 0.97930 0.87077 0.89987
 C161 C 0.97223 0.87823 0.91696
 C162 C 0.95506 0.86727 0.92822
 C163 C 0.94794 0.84752 0.92145
 H164 H 0.95556 0.83994 0.90827
 O165 O 1.10480 1.07526 0.97945
 O166 O 1.12947 1.09956 0.97942
 C167 C 1.12191 1.08255 0.97224
 C168 C 1.13276 1.07139 0.95494
 C169 C 1.15252 1.07816 0.94780
 H170 H 1.16017 1.09123 0.95552
 O171 O 0.89530 0.92465 0.97950
 O172 O 0.87068 0.90031 0.97951
 C173 C 0.87817 0.91735 0.97234
 C174 C 0.86716 0.92857 0.95520
 C175 C 0.84751 0.92160 0.94804
 H176 H 0.84010 0.90831 0.95563
 Cu177 Cu 0.99984 0.91223 0.91226
 Cu178 Cu 0.99971 0.88281 0.88290
 Cu179 Cu 0.99970 1.08838 0.91285
 Cu180 Cu 0.99963 1.11797 0.88366
 Cu181 Cu 0.91224 1.00037 0.91233
 Cu182 Cu 0.88289 1.00044 0.88290
 Cu183 Cu 1.08705 1.00019 0.91147
 Cu184 Cu 1.11625 1.00033 0.88189
 C185 C 0.94502 0.94531 0.87712
 H186 H 0.95029 0.95052 0.89243
 C187 C 0.93076 0.93125 0.83782
 C188 C 1.05412 1.05543 0.87686
 H189 H 1.04899 1.05013 0.89218
 C190 C 1.06800 1.06978 0.83751
 C191 C 0.87672 0.94577 0.94525
 H192 H 0.89204 0.95100 0.95047
 C193 C 0.83742 0.93156 0.93112
 C194 C 1.12287 1.05452 0.94474
 H195 H 1.10754 1.04937 0.95000
 C196 C 1.16222 1.06848 0.93048
 C197 C 0.94500 0.87706 0.94523
 H198 H 0.95026 0.89239 0.95039
 C199 C 0.93075 0.83772 0.93126
 C200 C 1.05489 1.12312 0.94562
 H201 H 1.04960 1.10779 0.95077
 C202 C 1.06920 1.16245 0.93167
 C203 C 0.94506 1.05538 0.87727
 H204 H 0.95023 1.05011 0.89260
 C205 C 0.93106 1.06964 0.83795
 C206 C 1.05413 0.94537 0.87633
 H207 H 1.04899 0.95062 0.89167
 C208 C 1.06807 0.93114 0.83697
 C209 C 1.05501 0.87713 0.94489
 H210 H 1.04979 0.89244 0.95015
 C211 C 1.06911 0.83783 0.93065
 C212 C 0.94479 1.12337 0.94594
 H213 H 0.95006 1.10803 0.95106
 C214 C 0.93054 1.16275 0.93206
 C215 C 0.87673 1.05497 0.94552
 H216 H 0.89204 1.04976 0.95079
 C217 C 0.83745 1.06907 0.93124
 C218 C 1.12284 0.94554 0.94425
 H219 H 1.10752 0.95067 0.94956
 C220 C 1.16218 0.93164 0.92990
 O221 O 1.02093 0.92345 1.10398
 O222 O 1.02098 0.89886 1.12837
 C223 C 1.02810 0.91600 1.12105
 C224 C 1.04516 0.92721 1.13220
 C225 C 1.05223 0.92020 1.15188
 H226 H 1.04470 0.90681 1.15918
 O227 O 0.98005 1.07582 1.10472
 O228 O 0.98012 1.10024 1.12927
 C229 C 0.97300 1.08312 1.12190
 C230 C 0.95600 1.07181 1.13304
 C231 C 0.94892 1.07867 1.15279
 H232 H 0.95644 1.09199 1.16022
 O233 O 0.89605 1.02031 1.07645
 O234 O 0.87166 1.02021 1.10103
 C235 C 0.87897 1.02742 1.08392
 C236 C 0.86779 1.04451 1.07279
 C237 C 0.84810 1.05153 1.07983
 H238 H 0.84079 1.04393 1.09317
 O239 O 1.10458 0.97913 1.07587
 O240 O 1.12910 0.97903 1.10032
 C241 C 1.12168 0.97194 1.08320
 C242 C 1.13278 0.95491 1.07190
 C243 C 1.15243 0.94775 1.07888
 H244 H 1.15973 0.95520 1.09231
 O245 O 1.07643 0.89564 1.01996
 O246 O 1.10095 0.87119 1.01979
 C247 C 1.08386 0.87853 1.02703
 C248 C 1.07271 0.86736 1.04412
 C249 C 1.07976 0.84768 1.05117
 H250 H 1.09313 0.84040 1.04361
 O251 O 0.92387 1.10443 1.02093
 O252 O 0.89938 1.12891 1.02116
 C253 C 0.91654 1.12151 1.02817
 C254 C 0.92787 1.13254 1.04524
 C255 C 0.92105 1.15227 1.05239
 H256 H 0.90773 1.15974 1.04491
 O257 O 0.92505 0.97928 1.10487
 O258 O 0.90081 0.97917 1.12960
 C259 C 0.91783 0.97203 1.12200
 C260 C 0.92905 0.95477 1.13283
 C261 C 0.92232 0.94761 1.15258
 H262 H 0.90921 0.95529 1.16023
 O263 O 1.07594 1.02012 1.10469
 O264 O 1.10033 1.02009 1.12926
 C265 C 1.08329 1.02730 1.12179
 C266 C 1.07215 1.04456 1.13272
 C267 C 1.07901 1.05170 1.15244
 H268 H 1.09218 1.04405 1.16001
 O269 O 0.97992 0.89489 1.07512
 O270 O 0.97993 0.87016 1.09936
 C271 C 0.97274 0.87775 1.08236
 C272 C 0.95547 0.86690 1.07119
 C273 C 0.94834 0.84714 1.07794
 H274 H 0.95604 0.83950 1.09104
 O275 O 1.02067 1.10467 1.07561
 O276 O 1.02080 1.12926 1.09998
 C277 C 1.02787 1.12179 1.08289
 C278 C 1.04504 1.13273 1.07161
 C279 C 1.05218 1.15248 1.07837
 H280 H 1.04456 1.16007 1.09154
 O281 O 0.89535 0.92455 1.02049
 O282 O 0.87070 0.90024 1.02052
 C283 C 0.87824 0.91726 1.02769
 C284 C 0.86737 0.92843 1.04497
 C285 C 0.84762 0.92166 1.05211
 H286 H 0.83998 0.90856 1.04442
 O287 O 1.10482 1.07521 1.02047
 O288 O 1.12945 1.09953 1.02046
 C289 C 1.12193 1.08250 1.02765
 C290 C 1.13290 1.07133 1.04485
 C291 C 1.15255 1.07832 1.05201
 H292 H 1.15999 1.09157 1.04438
 O293 O 1.02096 1.07585 1.10430
 O294 O 1.02107 1.10030 1.12881
 C295 C 1.02820 1.08322 1.12136
 C296 C 1.04533 1.07200 1.13239
 C297 C 1.05249 1.07901 1.15203
 H298 H 1.04498 1.09239 1.15936
 O299 O 0.98000 0.92349 1.10402
 O300 O 0.97999 0.89890 1.12840
 C301 C 0.97287 0.91605 1.12110
 C302 C 0.95583 0.92727 1.13230
 C303 C 0.94877 0.92024 1.15198
 H304 H 0.95629 0.90683 1.15925
 O305 O 1.10474 1.02003 1.07597
 O306 O 1.12928 1.02000 1.10039
 C307 C 1.12187 1.02714 1.08330
 C308 C 1.13295 1.04423 1.07203
 C309 C 1.15269 1.05134 1.07888
 H310 H 1.16014 1.04381 1.09218
 O311 O 0.89611 0.97937 1.07630
 O312 O 0.87174 0.97925 1.10090
 C313 C 0.87905 0.97219 1.08373
 C314 C 0.86787 0.95517 1.07248
 C315 C 0.84820 0.94810 1.07950
 H316 H 0.84091 0.95560 1.09291
 O317 O 1.07620 1.10410 1.02049
 O318 O 1.10073 1.12854 1.02047
 C319 C 1.08361 1.12118 1.02763
 C320 C 1.07241 1.13233 1.04471
 C321 C 1.07944 1.15199 1.05179
 H322 H 1.09280 1.15931 1.04423
 O323 O 0.92403 0.89571 1.02035
 O324 O 0.89951 0.87127 1.02039
 C325 C 0.91665 0.87861 1.02748
 C326 C 0.92793 0.86741 1.04448
 C327 C 0.92092 0.84773 1.05155
 H328 H 0.90750 0.84046 1.04406
 O329 O 1.07587 0.97913 1.10467
 O330 O 1.10024 0.97904 1.12926
 C331 C 1.08318 0.97191 1.12176
 C332 C 1.07197 0.95467 1.13266
 C333 C 1.07873 0.94753 1.15241
 H334 H 1.09186 0.95520 1.16003
 O335 O 0.92502 1.02028 1.10497
 O336 O 0.90075 1.02020 1.12967
 C337 C 0.91775 1.02741 1.12212
 C338 C 0.92892 1.04462 1.13308
 C339 C 0.92197 1.05178 1.15274
 H340 H 0.90874 1.04415 1.16020
 O341 O 0.97966 1.10445 1.07585
 O342 O 0.97975 1.12901 1.10026
 C343 C 0.97247 1.12152 1.08326
 C344 C 0.95516 1.13247 1.07223
 C345 C 0.94802 1.15211 1.07926
 H346 H 0.95571 1.15955 1.09247
 O347 O 1.02091 0.89489 1.07504
 O348 O 1.02096 0.87016 1.09928
 C349 C 1.02810 0.87774 1.08226
 C350 C 1.04532 0.86687 1.07100
 C351 C 1.05248 0.84712 1.07773
 H352 H 1.04486 0.83950 1.09088
 O353 O 1.10512 0.92443 1.01992
 O354 O 1.12978 0.90013 1.01975
 C355 C 1.12227 0.91713 1.02702
 C356 C 1.13319 0.92823 1.04430
 C357 C 1.15293 0.92138 1.05143
 H358 H 1.16052 0.90826 1.04372
 O359 O 0.89527 1.07551 1.02098
 O360 O 0.87062 1.09983 1.02121
 C361 C 0.87817 1.08276 1.02826
 C362 C 0.86732 1.07147 1.04547
 C363 C 0.84755 1.07816 1.05262
 H364 H 0.83992 1.09131 1.04501
 Cu365 Cu 1.00044 0.91163 1.08710
 Cu366 Cu 1.00047 0.88204 1.11629
 Cu367 Cu 1.00032 1.08776 1.08766
 Cu368 Cu 1.00045 1.11718 1.11702
 Cu369 Cu 0.91210 0.91263 0.99994
 Cu370 Cu 0.88260 0.88334 0.99997
 Cu371 Cu 1.08821 0.91255 0.99947
 Cu372 Cu 1.11772 0.88328 0.99923
 Cu373 Cu 0.91191 1.08760 1.00047
 Cu374 Cu 0.88242 1.11689 1.00071
 Cu375 Cu 1.08805 1.08722 0.99999
 Cu376 Cu 1.11757 1.11648 0.99996
 Cu377 Cu 0.91300 0.99982 1.08819
 Cu378 Cu 0.88381 0.99969 1.11779
 Cu379 Cu 1.08782 0.99962 1.08787
 Cu380 Cu 1.11718 0.99953 1.11728
 C381 C 1.05503 0.94455 1.12281
 H382 H 1.04988 0.94983 1.10749
 C383 C 1.06898 0.93028 1.16215
 C384 C 0.94604 1.05463 1.12345
 H385 H 0.95125 1.04941 1.10812
 C386 C 0.93188 1.06878 1.16276
 C387 C 0.87718 1.05448 1.05550
 H388 H 0.89252 1.04938 1.05021
 C389 C 0.83781 1.06831 1.06981
 C390 C 1.12338 0.94516 1.05450
 H391 H 1.10807 0.95038 1.04925
 C392 C 1.16267 0.93102 1.06875
 C393 C 1.05539 0.87673 1.05404
 H394 H 1.05009 0.89206 1.04890
 C395 C 1.06972 0.83740 1.06794
 C396 C 0.94508 1.12289 1.05512
 H397 H 0.95028 1.10759 1.04983
 C398 C 0.93101 1.16218 1.06942
 C399 C 0.94597 0.94464 1.12294
 H400 H 0.95110 0.94993 1.10761
 C401 C 0.93205 0.93033 1.16229
 C402 C 1.05516 1.05467 1.12295
 H403 H 1.04993 1.04940 1.10765
 C404 C 1.06929 1.06896 1.16222
 C405 C 0.94530 0.87678 1.05429
 H406 H 0.95057 0.89211 1.04915
 C407 C 0.93105 0.83743 1.06824
 C408 C 1.05511 1.12291 1.05462
 H409 H 1.04984 1.10759 1.04947
 C410 C 1.06940 1.16224 1.06858
 C411 C 0.87724 0.94534 1.05511
 H412 H 0.89257 0.95049 1.04984
 C413 C 0.83790 0.93138 1.06939
 C414 C 1.12332 1.05419 1.05486
 H415 H 1.10801 1.04895 1.04963
 C416 C 1.16261 1.06841 1.06899
 O417 O 0.97945 0.42448 0.39543
 O418 O 0.97929 0.40006 0.37088
 C419 C 0.97226 0.41720 0.37832
 C420 C 0.95521 0.42856 0.36728
 C421 C 0.94809 0.42178 0.34753
 H422 H 0.95560 0.40848 0.34004
 O423 O 1.02053 0.57676 0.39596
 O424 O 1.02050 0.60138 0.37161
 C425 C 1.02761 0.58420 0.37886
 C426 C 1.04457 0.57296 0.36758
 C427 C 1.05158 0.58000 0.34788
 H428 H 1.04407 0.59343 0.34065
 O429 O 0.89563 0.48002 0.42426
 O430 O 0.87110 0.48018 0.39981
 C431 C 0.87851 0.47293 0.41686
 C432 C 0.86739 0.45580 0.42800
 C433 C 0.84774 0.44871 0.42096
 H434 H 0.84041 0.45629 0.40762
 O435 O 1.10430 0.52070 0.42333
 O436 O 1.12865 0.52080 0.39871
 C437 C 1.12137 0.52785 0.41590
 C438 C 1.13260 0.54480 0.42720
 C439 C 1.15227 0.55188 0.42017
 H440 H 1.15951 0.54444 0.40670
 O441 O 0.92378 0.39589 0.47948
 O442 O 0.89925 0.37145 0.47943
 C443 C 0.91637 0.37882 0.47230
 C444 C 0.92758 0.36777 0.45516
 C445 C 0.92068 0.34805 0.44804
 H446 H 0.90739 0.34060 0.45558
 O447 O 1.07674 0.60412 0.47973
 O448 O 1.10131 0.62852 0.47974
 C449 C 1.08415 0.62123 0.47264
 C450 C 1.07288 0.63248 0.45567
 C451 C 1.07991 0.65217 0.44863
 H452 H 1.09334 0.65941 0.45612
 O453 O 0.92448 0.52110 0.39575
 O454 O 0.90009 0.52130 0.37117
 C455 C 0.91716 0.52839 0.37868
 C456 C 0.92837 0.54565 0.36781
 C457 C 0.92159 0.55280 0.34807
 H458 H 0.90844 0.54516 0.34047
 O459 O 1.07532 0.47989 0.39462
 O460 O 1.09954 0.47993 0.36987
 C461 C 1.08254 0.47274 0.37746
 C462 C 1.07131 0.45552 0.36658
 C463 C 1.07807 0.44835 0.34683
 H464 H 1.09121 0.45599 0.33921
 O465 O 1.02030 0.39554 0.42415
 O466 O 1.02018 0.37095 0.39978
 C467 C 1.02743 0.37842 0.41681
 C468 C 1.04470 0.36747 0.42791
 C469 C 1.05181 0.34773 0.42106
 H470 H 1.04409 0.34015 0.40795
 O471 O 0.97979 0.60544 0.42513
 O472 O 0.97974 0.63018 0.40091
 C473 C 0.97263 0.62261 0.41794
 C474 C 0.95546 0.63351 0.42923
 C475 C 0.94831 0.65327 0.42250
 H476 H 0.95593 0.66088 0.40933
 O477 O 0.89567 0.57593 0.48019
 O478 O 0.87105 0.60028 0.48037
 C479 C 0.87855 0.58328 0.47308
 C480 C 0.86755 0.57219 0.45584
 C481 C 0.84788 0.57918 0.44873
 H482 H 0.84043 0.59239 0.45641
 O483 O 1.10504 0.42478 0.47885
 O484 O 1.12968 0.40045 0.47864
 C485 C 1.12213 0.41751 0.47157
 C486 C 1.13298 0.42876 0.45433
 C487 C 1.15274 0.42204 0.44719
 H488 H 1.16039 0.40892 0.45484
 O489 O 0.97959 0.57675 0.39632
 O490 O 0.97952 0.60135 0.37196
 C491 C 0.97238 0.58422 0.37930
 C492 C 0.95524 0.57306 0.36820
 C493 C 0.94813 0.58009 0.34854
 H494 H 0.95568 0.59346 0.34122
 O495 O 1.02036 0.42427 0.39537
 O496 O 1.02023 0.39981 0.37086
 C497 C 1.02744 0.41689 0.37824
 C498 C 1.04449 0.42808 0.36707
 C499 C 1.05157 0.42103 0.34741
 H500 H 1.04404 0.40764 0.34013
 O501 O 1.10423 0.47979 0.42320
 O502 O 1.12860 0.47984 0.39859
 C503 C 1.12130 0.47266 0.41572
 C504 C 1.13248 0.45559 0.42689
 C505 C 1.15217 0.44854 0.41986
 H506 H 1.15945 0.45609 0.40647
 O507 O 0.89568 0.52094 0.42450
 O508 O 0.87115 0.52114 0.40007
 C509 C 0.87857 0.52815 0.41722
 C510 C 0.86751 0.54518 0.42858
 C511 C 0.84775 0.55228 0.42179
 H512 H 0.84029 0.54478 0.40848
 O513 O 0.92432 0.60476 0.48024
 O514 O 0.89983 0.62923 0.48042
 C515 C 0.91691 0.62188 0.47319
 C516 C 0.92808 0.63306 0.45612
 C517 C 0.92104 0.65274 0.44907
 H518 H 0.90767 0.66003 0.45662
 O519 O 1.07630 0.39601 0.47886
 O520 O 1.10079 0.37154 0.47863
 C521 C 1.08364 0.37894 0.47161
 C522 C 1.07231 0.36785 0.45459
 C523 C 1.07927 0.34820 0.44743
 H524 H 1.09269 0.34088 0.45488
 O525 O 1.07529 0.52087 0.39483
 O526 O 1.09950 0.52096 0.37007
 C527 C 1.08251 0.52812 0.37771
 C528 C 1.07129 0.54541 0.36693
 C529 C 1.07797 0.55256 0.34716
 H530 H 1.09103 0.54487 0.33946
 O531 O 0.92441 0.48009 0.39556
 O532 O 0.90001 0.48025 0.37099
 C533 C 0.91704 0.47299 0.37844
 C534 C 0.92815 0.45578 0.36740
 C535 C 0.92115 0.44868 0.34773
 H536 H 0.90791 0.45635 0.34031
 O537 O 1.02078 0.60517 0.42506
 O538 O 1.02077 0.62992 0.40085
 C539 C 1.02799 0.62229 0.41782
 C540 C 1.04531 0.63309 0.42898
 C541 C 1.05245 0.65285 0.42226
 H542 H 1.04474 0.66053 0.40920
 O543 O 0.97927 0.39576 0.42423
 O544 O 0.97912 0.37121 0.39982
 C545 C 0.97199 0.37871 0.41687
 C546 C 0.95473 0.36779 0.42803
 C547 C 0.94753 0.34816 0.42104
 H548 H 0.95514 0.34071 0.40778
 O549 O 1.10531 0.57519 0.47945
 O550 O 1.13002 0.59945 0.47948
 C551 C 1.12242 0.58248 0.47224
 C552 C 1.13322 0.57138 0.45487
 C553 C 1.15297 0.57815 0.44773
 H554 H 1.16065 0.59119 0.45548
 O555 O 0.89512 0.42476 0.47962
 O556 O 0.87044 0.40048 0.47957
 C557 C 0.87797 0.41753 0.47245
 C558 C 0.86704 0.42881 0.45529
 C559 C 0.84730 0.42204 0.44813
 H560 H 0.83973 0.40883 0.45571
 Cu561 Cu 0.99986 0.41244 0.41226
 Cu562 Cu 0.99969 0.38303 0.38290
 Cu563 Cu 1.00018 0.58857 0.41306
 Cu564 Cu 1.00013 0.61819 0.38390
 Cu565 Cu 0.91250 0.50053 0.41245
 Cu566 Cu 0.88315 0.50075 0.38304
 Cu567 Cu 1.08734 0.50030 0.41145
 Cu568 Cu 1.11650 0.50039 0.38182
 C569 C 0.94529 0.44572 0.37695
 H570 H 0.95054 0.45089 0.39228
 C571 C 0.93104 0.43172 0.33763
 C572 C 1.05443 0.55556 0.37688
 H573 H 1.04934 0.55027 0.39222
 C574 C 1.06824 0.56987 0.33750
 C575 C 0.87683 0.44585 0.44527
 H576 H 0.89214 0.45101 0.45056
 C577 C 0.83752 0.43186 0.43094
 C578 C 1.12330 0.55455 0.44465
 H579 H 1.10797 0.54940 0.44994
 C580 C 1.16263 0.56851 0.43036
 C581 C 0.94476 0.37738 0.44519
 H582 H 0.95002 0.39267 0.45044
 C583 C 0.93054 0.33812 0.43095
 C584 C 1.05548 0.62316 0.44585
 H585 H 1.05019 0.60783 0.45097
 C586 C 1.06977 0.66252 0.43196
 C587 C 0.94535 0.55574 0.37762
 H588 H 0.95053 0.55044 0.39293
 C589 C 0.93135 0.57004 0.33830
 C590 C 1.05437 0.44542 0.37644
 H591 H 1.04921 0.45072 0.39176
 C592 C 1.06832 0.43109 0.33712
 C593 C 1.05492 0.37728 0.44483
 H594 H 1.04968 0.39259 0.45005
 C595 C 1.06911 0.33797 0.43070
 C596 C 0.94539 0.62367 0.44621
 H597 H 0.95068 0.60834 0.45134
 C598 C 0.93108 0.66301 0.43229
 C599 C 0.87715 0.55508 0.44576
 H600 H 0.89248 0.54984 0.45094
 C601 C 0.83782 0.56930 0.43174
 C602 C 1.12311 0.44570 0.44423
 H603 H 1.10778 0.45082 0.44952
 C604 C 1.16247 0.43181 0.42993
 O605 O 1.02089 0.42328 0.60382
 O606 O 1.02097 0.39865 0.62817
 C607 C 1.02807 0.41582 0.62087
 C608 C 1.04511 0.42703 0.63205
 C609 C 1.05217 0.42000 0.65173
 H610 H 1.04465 0.40660 0.65901
 O611 O 0.98023 0.57585 0.60471
 O612 O 0.98035 0.60028 0.62924
 C613 C 0.97315 0.58320 0.62184
 C614 C 0.95610 0.57197 0.63298
 C615 C 0.94901 0.57897 0.65266
 H616 H 0.95654 0.59235 0.65997
 O617 O 0.89642 0.52040 0.57663
 O618 O 0.87204 0.52037 0.60121
 C619 C 0.87938 0.52756 0.58411
 C620 C 0.86826 0.54472 0.57298
 C621 C 0.84858 0.55178 0.58002
 H622 H 0.84125 0.54418 0.59336
 O623 O 1.10459 0.47911 0.57591
 O624 O 1.12908 0.47891 0.60039
 C625 C 1.12168 0.47189 0.58324
 C626 C 1.13280 0.45490 0.57190
 C627 C 1.15246 0.44775 0.57888
 H628 H 1.15975 0.45519 0.59232
 O629 O 1.07652 0.39574 0.51979
 O630 O 1.10102 0.37127 0.51960
 C631 C 1.08392 0.37861 0.52683
 C632 C 1.07273 0.36738 0.54386
 C633 C 1.07977 0.34769 0.55088
 H634 H 1.09317 0.34042 0.54334
 O635 O 0.92448 0.60463 0.52114
 O636 O 0.90000 0.62911 0.52137
 C637 C 0.91716 0.62172 0.52836
 C638 C 0.92850 0.63278 0.54540
 C639 C 0.92170 0.65253 0.55251
 H640 H 0.90838 0.65998 0.54502
 O641 O 0.92525 0.47922 0.60499
 O642 O 0.90102 0.47915 0.62973
 C643 C 0.91801 0.47197 0.62210
 C644 C 0.92918 0.45464 0.63288
 C645 C 0.92247 0.44748 0.65264
 H646 H 0.90941 0.45519 0.66033
 O647 O 1.07597 0.52008 0.60478
 O648 O 1.10036 0.51992 0.62935
 C649 C 1.08335 0.52720 0.62188
 C650 C 1.07229 0.54445 0.63288
 C651 C 1.07930 0.55156 0.65254
 H652 H 1.09250 0.54387 0.65999
 O653 O 0.97984 0.39473 0.57498
 O654 O 0.97990 0.36997 0.59919
 C655 C 0.97267 0.37759 0.58222
 C656 C 0.95535 0.36677 0.57108
 C657 C 0.94820 0.34702 0.57784
 H658 H 0.95592 0.33935 0.59090
 O659 O 1.02120 0.60445 0.57582
 O660 O 1.02137 0.62903 0.60021
 C661 C 1.02846 0.62152 0.58313
 C662 C 1.04570 0.63241 0.57190
 C663 C 1.05283 0.65216 0.57865
 H664 H 1.04519 0.65977 0.59180
 O665 O 0.89530 0.42467 0.52060
 O666 O 0.87059 0.40042 0.52061
 C667 C 0.87819 0.41741 0.52781
 C668 C 0.86737 0.42858 0.54513
 C669 C 0.84762 0.42183 0.55229
 H670 H 0.83996 0.40874 0.54460
 O671 O 1.10547 0.57500 0.52045
 O672 O 1.13017 0.59927 0.52051
 C673 C 1.12263 0.58222 0.52762
 C674 C 1.13353 0.57095 0.54481
 C675 C 1.15330 0.57768 0.55193
 H676 H 1.16092 0.59082 0.54429
 O677 O 1.02112 0.57582 0.60474
 O678 O 1.02129 0.60025 0.62927
 C679 C 1.02831 0.58311 0.62185
 C680 C 1.04533 0.57176 0.63291
 C681 C 1.05245 0.57855 0.65266
 H682 H 1.04497 0.59188 0.66012
 O683 O 0.97997 0.42330 0.60392
 O684 O 0.98001 0.39868 0.62826
 C685 C 0.97287 0.41584 0.62100
 C686 C 0.95588 0.42707 0.63225
 C687 C 0.94884 0.42002 0.65193
 H688 H 0.95633 0.40659 0.65917
 O689 O 1.10475 0.52001 0.57606
 O690 O 1.12926 0.51985 0.60052
 C691 C 1.12189 0.52706 0.58344
 C692 C 1.13307 0.54410 0.57222
 C693 C 1.15276 0.55115 0.57923
 H694 H 1.16006 0.54360 0.59261
 O695 O 0.89624 0.47945 0.57650
 O696 O 0.87187 0.47938 0.60110
 C697 C 0.87915 0.47230 0.58393
 C698 C 0.86793 0.45531 0.57267
 C699 C 0.84826 0.44824 0.57971
 H700 H 0.84101 0.45573 0.59314
 O701 O 1.07682 0.60386 0.52067
 O702 O 1.10138 0.62827 0.52072
 C703 C 1.08426 0.62090 0.52787
 C704 C 1.07309 0.63201 0.54500
 C705 C 1.08010 0.65168 0.55208
 H706 H 1.09345 0.65901 0.54451
 O707 O 0.92385 0.39572 0.52039
 O708 O 0.89928 0.37131 0.52040
 C709 C 0.91644 0.37861 0.52750
 C710 C 0.92773 0.36737 0.54445
 C711 C 0.92070 0.34770 0.55152
 H712 H 0.90724 0.34047 0.54407
 O713 O 1.07580 0.47907 0.60464
 O714 O 1.10015 0.47888 0.62925
 C715 C 1.08309 0.47179 0.62172
 C716 C 1.07188 0.45453 0.63257
 C717 C 1.07862 0.44738 0.65233
 H718 H 1.09172 0.45506 0.65997
 O719 O 0.92526 0.52021 0.60528
 O720 O 0.90102 0.52017 0.63001
 C721 C 0.91804 0.52734 0.62246
 C722 C 0.92927 0.54453 0.63339
 C723 C 0.92250 0.55165 0.65315
 H724 H 0.90935 0.54400 0.66075
 O725 O 0.98018 0.60466 0.57605
 O726 O 0.98032 0.62923 0.60045
 C727 C 0.97305 0.62176 0.58344
 C728 C 0.95580 0.63276 0.57237
 C729 C 0.94867 0.65242 0.57937
 H730 H 0.95636 0.65987 0.59258
 O731 O 1.02084 0.39480 0.57479
 O732 O 1.02094 0.37004 0.59899
 C733 C 1.02806 0.37766 0.58197
 C734 C 1.04529 0.36683 0.57070
 C735 C 1.05245 0.34706 0.57739
 H736 H 1.04480 0.33940 0.59051
 O737 O 1.10520 0.42456 0.51985
 O738 O 1.12983 0.40023 0.51967
 C739 C 1.12233 0.41722 0.52696
 C740 C 1.13324 0.42829 0.54427
 C741 C 1.15299 0.42144 0.55137
 H742 H 1.16059 0.40835 0.54363
 O743 O 0.89583 0.57573 0.52119
 O744 O 0.87120 0.60006 0.52142
 C745 C 0.87874 0.58298 0.52848
 C746 C 0.86786 0.57170 0.54568
 C747 C 0.84811 0.57843 0.55284
 H748 H 0.84051 0.59161 0.54523
 Cu749 Cu 1.00038 0.41148 0.58694
 Cu750 Cu 1.00047 0.38184 0.61608
 Cu751 Cu 1.00068 0.58776 0.58787
 Cu752 Cu 1.00086 0.61718 0.61723
 Cu753 Cu 0.91196 0.41270 0.50002
 Cu754 Cu 0.88240 0.38348 0.50000
 Cu755 Cu 1.08833 0.41273 0.49936
 Cu756 Cu 1.11781 0.38343 0.49910
 Cu757 Cu 0.91252 0.58781 0.50068
 Cu758 Cu 0.88303 0.61711 0.50093
 Cu759 Cu 1.08864 0.58710 0.50007
 Cu760 Cu 1.11820 0.61631 0.50012
 Cu761 Cu 0.91323 0.49983 0.58840
 Cu762 Cu 0.88405 0.49976 0.61800
 Cu763 Cu 1.08781 0.49958 0.58792
 Cu764 Cu 1.11715 0.49937 0.61736
 C765 C 1.05496 0.44440 0.62269
 H766 H 1.04983 0.44969 0.60736
 C767 C 1.06888 0.43010 0.66204
 C768 C 0.94623 0.55465 0.62357
 H769 H 0.95138 0.54939 0.60823
 C770 C 0.93225 0.56890 0.66290
 C771 C 0.87768 0.55468 0.55571
 H772 H 0.89301 0.54954 0.55041
 C773 C 0.83834 0.56859 0.57003
 C774 C 1.12341 0.44517 0.55450
 H775 H 1.10809 0.45039 0.54925
 C776 C 1.16272 0.43106 0.56870
 C777 C 1.05539 0.37673 0.55377
 H778 H 1.05009 0.39207 0.54867
 C779 C 1.06971 0.33736 0.56761
 C780 C 0.94571 0.62316 0.55528
 H781 H 0.95090 0.60783 0.55002
 C782 C 0.93167 0.66247 0.56952
 C783 C 0.94605 0.44448 0.62294
 H784 H 0.95116 0.44978 0.60761
 C785 C 0.93218 0.43016 0.66230
 C786 C 1.05521 0.55455 0.62328
 H787 H 1.04995 0.54937 0.60796
 C788 C 1.06945 0.56858 0.66260
 C789 C 0.94516 0.37669 0.55423
 H790 H 0.95044 0.39201 0.54908
 C791 C 0.93085 0.33736 0.56818
 C792 C 1.05579 0.62258 0.55491
 H793 H 1.05051 0.60726 0.54976
 C794 C 1.07005 0.66193 0.56885
 C795 C 0.87727 0.44548 0.55527
 H796 H 0.89259 0.45062 0.54998
 C797 C 0.83794 0.43154 0.56960
 C798 C 1.12368 0.55400 0.55490
 H799 H 1.10834 0.54888 0.54964
 C800 C 1.16304 0.56790 0.56917
 O801 O 0.47937 0.92399 0.39568
 O802 O 0.47925 0.89945 0.37124
 C803 C 0.47217 0.91659 0.37861
 C804 C 0.45512 0.92784 0.36748
 C805 C 0.44801 0.92083 0.34783
 H806 H 0.45551 0.90743 0.34052
 O807 O 0.52045 1.07639 0.39578
 O808 O 0.52040 1.10093 0.37136
 C809 C 0.52758 1.08382 0.37871
 C810 C 0.54467 1.07263 0.36756
 C811 C 0.55176 1.07967 0.34790
 H812 H 0.54423 1.09307 0.34061
 O813 O 0.39579 0.97963 0.42396
 O814 O 0.37130 0.97961 0.39947
 C815 C 0.37869 0.97248 0.41658
 C816 C 0.36756 0.95544 0.42784
 C817 C 0.34789 0.94834 0.42084
 H818 H 0.34060 0.95584 0.40743
 O819 O 0.60441 1.02037 0.42348
 O820 O 0.62882 1.02039 0.39892
 C821 C 0.62151 1.02748 0.41608
 C822 C 0.63266 1.04453 0.42733
 C823 C 0.65240 1.05162 0.42042
 H824 H 0.65981 1.04409 0.40710
 O825 O 0.42382 0.89599 0.47974
 O826 O 0.39928 0.87157 0.47974
 C827 C 0.41640 0.87892 0.47259
 C828 C 0.42759 0.86779 0.45550
 C829 C 0.42059 0.84810 0.44844
 H830 H 0.40723 0.84079 0.45599
 O831 O 0.57620 1.10442 0.47923
 O832 O 0.60073 1.12885 0.47917
 C833 C 0.58358 1.12152 0.47210
 C834 C 0.57229 1.13271 0.45512
 C835 C 0.57929 1.15238 0.44802
 H836 H 0.59272 1.15965 0.45550
 O837 O 0.42452 1.02072 0.39536
 O838 O 0.40015 1.02074 0.37077
 C839 C 0.41717 1.02794 0.37829
 C840 C 0.42829 1.04520 0.36736
 C841 C 0.42133 1.05237 0.34771
 H842 H 0.40811 1.04471 0.34024
 O843 O 0.57529 0.97963 0.39480
 O844 O 0.59954 0.97959 0.37008
 C845 C 0.58250 0.97246 0.37765
 C846 C 0.57124 0.95526 0.36675
 C847 C 0.57797 0.94812 0.34699
 H848 H 0.59110 0.95577 0.33936
 O849 O 0.52044 0.89532 0.42438
 O850 O 0.52033 0.87068 0.40005
 C851 C 0.52759 0.87820 0.41704
 C852 C 0.54484 0.86724 0.42814
 C853 C 0.55198 0.84759 0.42115
 H854 H 0.54431 0.84012 0.40794
 O855 O 0.47935 1.10484 0.42465
 O856 O 0.47923 1.12952 0.40036
 C857 C 0.47209 1.12193 0.41739
 C858 C 0.45481 1.13275 0.42860
 C859 C 0.44764 1.15250 0.42187
 H860 H 0.45529 1.16015 0.40875
 O861 O 0.39491 1.07521 0.47979
 O862 O 0.37024 1.09952 0.47987
 C863 C 0.37776 1.08250 0.47267
 C864 C 0.36683 1.07133 0.45544
 C865 C 0.34708 1.07813 0.44833
 H866 H 0.33947 1.09124 0.45603
 O867 O 0.60473 0.92435 0.47912
 O868 O 0.62937 0.90003 0.47901
 C869 C 0.62183 0.91706 0.47187
 C870 C 0.63269 0.92826 0.45460
 C871 C 0.65243 0.92148 0.44743
 H872 H 0.66004 0.90834 0.45507
 O873 O 0.47953 1.07636 0.39560
 O874 O 0.47942 1.10089 0.37116
 C875 C 0.47237 1.08373 0.37850
 C876 C 0.45533 1.07243 0.36739
 C877 C 0.44824 1.07929 0.34765
 H878 H 0.45575 1.09262 0.34021
 O879 O 0.52030 0.92400 0.39556
 O880 O 0.52020 0.89948 0.37111
 C881 C 0.52737 0.91660 0.37845
 C882 C 0.54440 0.92782 0.36724
 C883 C 0.55145 0.92080 0.34756
 H884 H 0.54391 0.90741 0.34027
 O885 O 0.60411 0.97944 0.42347
 O886 O 0.62851 0.97940 0.39889
 C887 C 0.62116 0.97225 0.41601
 C888 C 0.63226 0.95512 0.42718
 C889 C 0.65192 0.94802 0.42014
 H890 H 0.65923 0.95557 0.40676
 O891 O 0.39559 1.02053 0.42394
 O892 O 0.37110 1.02055 0.39946
 C893 C 0.37846 1.02765 0.41659
 C894 C 0.36728 1.04463 0.42789
 C895 C 0.34761 1.05173 0.42090
 H896 H 0.34032 1.04426 0.40748
 O897 O 0.42362 1.10400 0.47967
 O898 O 0.39909 1.12844 0.47975
 C899 C 0.41619 1.12109 0.47254
 C900 C 0.42737 1.13225 0.45545
 C901 C 0.42032 1.15192 0.44839
 H902 H 0.40694 1.15921 0.45593
 O903 O 0.57609 0.89545 0.47931
 O904 O 0.60059 0.87098 0.47918
 C905 C 0.58343 0.87835 0.47215
 C906 C 0.57211 0.86725 0.45513
 C907 C 0.57894 0.84750 0.44803
 H908 H 0.59226 0.84006 0.45553
 O909 O 0.57537 1.02062 0.39500
 O910 O 0.59963 1.02064 0.37029
 C911 C 0.58263 1.02784 0.37789
 C912 C 0.57146 1.04515 0.36706
 C913 C 0.57823 1.05231 0.34732
 H914 H 0.59134 1.04465 0.33968
 O915 O 0.42447 0.97972 0.39512
 O916 O 0.40012 0.97970 0.37051
 C917 C 0.41717 0.97255 0.37800
 C918 C 0.42835 0.95532 0.36707
 C919 C 0.42154 0.94818 0.34733
 H920 H 0.40840 0.95585 0.33973
 O921 O 0.52035 1.10515 0.42451
 O922 O 0.52028 1.12983 0.40023
 C923 C 0.52748 1.12230 0.41724
 C924 C 0.54473 1.13320 0.42841
 C925 C 0.55187 1.15295 0.42162
 H926 H 0.54418 1.16058 0.40851
 O927 O 0.47943 0.89538 0.42460
 O928 O 0.47930 0.87072 0.40030
 C929 C 0.47220 0.87826 0.41736
 C930 C 0.45500 0.86736 0.42862
 C931 C 0.44787 0.84760 0.42188
 H932 H 0.45551 0.83999 0.40874
 O933 O 0.60475 1.07546 0.47902
 O934 O 0.62940 1.09977 0.47896
 C935 C 0.62184 1.08276 0.47178
 C936 C 0.63273 1.07160 0.45452
 C937 C 0.65237 1.07856 0.44732
 H938 H 0.65985 1.09179 0.45495
 O939 O 0.39511 0.92479 0.47979
 O940 O 0.37044 0.90051 0.47981
 C941 C 0.37798 0.91753 0.47262
 C942 C 0.36709 0.92870 0.45537
 C943 C 0.34734 0.92192 0.44824
 H944 H 0.33971 0.90881 0.45593
 Cu945 Cu 0.49989 0.91211 0.41251
 Cu946 Cu 0.49976 0.88260 0.38324
 Cu947 Cu 0.49992 1.08824 0.41258
 Cu948 Cu 0.49982 1.11778 0.38334
 Cu949 Cu 0.41255 1.00015 0.41203
 Cu950 Cu 0.38323 1.00015 0.38257
 Cu951 Cu 0.58735 1.00002 0.41163
 Cu952 Cu 0.61656 1.00000 0.38206
 C953 C 0.44530 0.94519 0.37689
 H954 H 0.45048 0.95045 0.39220
 C955 C 0.43125 0.93091 0.33758
 C956 C 0.55453 1.05527 0.37693
 H957 H 0.54937 1.04997 0.39224
 C958 C 0.56849 1.06959 0.33761
 C959 C 0.37694 0.94562 0.44521
 H960 H 0.39226 0.95079 0.45047
 C961 C 0.33761 0.93162 0.43095
 C962 C 0.62309 1.05448 0.44453
 H963 H 0.60779 1.04926 0.44980
 C964 C 0.66237 1.06866 0.43030
 C965 C 0.44490 0.87720 0.44559
 H966 H 0.45017 0.89253 0.45072
 C967 C 0.43064 0.83784 0.43167
 C968 C 0.55490 1.12335 0.44532
 H969 H 0.54964 1.10802 0.45048
 C970 C 0.56917 1.16267 0.43131
 C971 C 0.44540 1.05523 0.37698
 H972 H 0.45063 1.05000 0.39230
 C973 C 0.43121 1.06938 0.33769
 C974 C 0.55430 0.94515 0.37662
 H975 H 0.54917 0.95042 0.39196
 C976 C 0.56820 0.93087 0.33727
 C977 C 0.55490 0.87686 0.44523
 H978 H 0.54969 0.89218 0.45047
 C979 C 0.56899 0.83755 0.43101
 C980 C 0.44471 1.12288 0.44555
 H981 H 0.45001 1.10756 0.45069
 C982 C 0.43038 1.16222 0.43164
 C983 C 0.37667 1.05442 0.44526
 H984 H 0.39200 1.04925 0.45051
 C985 C 0.33734 1.06845 0.43103
 C986 C 0.62286 0.94524 0.44451
 H987 H 0.60755 0.95042 0.44981
 C988 C 0.66217 0.93125 0.43018
 O989 O 0.52076 0.92365 0.60416
 O990 O 0.52088 0.89914 0.62863
 C991 C 0.52796 0.91628 0.62124
 C992 C 0.54507 0.92755 0.63228
 C993 C 0.55219 0.92070 0.65200
 H994 H 0.54468 0.90739 0.65947
 O995 O 0.47992 1.07630 0.60426
 O996 O 0.48000 1.10083 0.62869
 C997 C 0.47285 1.08370 0.62138
 C998 C 0.45586 1.07246 0.63263
 C999 C 0.44882 1.07950 0.65231
 H1000 H 0.45631 1.09293 0.65956
 O1001 O 0.39617 1.02043 0.57674
 O1002 O 0.37180 1.02046 0.60135
 C1003 C 0.37910 1.02757 0.58419
 C1004 C 0.36788 1.04459 0.57296
 C1005 C 0.34821 1.05165 0.58001
 H1006 H 0.34096 1.04416 0.59344
 O1007 O 0.60475 0.97951 0.57559
 O1008 O 0.62927 0.97950 0.60003
 C1009 C 0.62189 0.97240 0.58291
 C1010 C 0.63299 0.95535 0.57162
 C1011 C 0.65274 0.94826 0.57846
 H1012 H 0.66019 0.95580 0.59175
 O1013 O 0.57623 0.89552 0.52022
 O1014 O 0.60074 0.87105 0.52014
 C1015 C 0.58365 0.87843 0.52734
 C1016 C 0.57249 0.86730 0.54445
 C1017 C 0.57953 0.84764 0.55154
 H1018 H 0.59289 0.84032 0.54397
 O1019 O 0.42377 1.10406 0.52060
 O1020 O 0.39924 1.12850 0.52072
 C1021 C 0.41640 1.12115 0.52777
 C1022 C 0.42771 1.13232 0.54475
 C1023 C 0.42073 1.15200 0.55185
 H1024 H 0.40731 1.15929 0.54438
 O1025 O 0.42510 0.97945 0.60529
 O1026 O 0.40088 0.97944 0.63004
 C1027 C 0.41787 0.97226 0.62243
 C1028 C 0.42906 0.95497 0.63326
 C1029 C 0.42232 0.94782 0.65302
 H1030 H 0.40923 0.95551 0.66068
 O1031 O 0.57578 1.02030 0.60440
 O1032 O 0.60014 1.02032 0.62900
 C1033 C 0.58309 1.02748 0.62151
 C1034 C 0.57190 1.04473 0.63244
 C1035 C 0.57871 1.05185 0.65219
 H1036 H 0.59184 1.04416 0.65978
 O1037 O 0.47974 0.89503 0.57542
 O1038 O 0.47977 0.87035 0.59970
 C1039 C 0.47255 0.87791 0.58270
 C1040 C 0.45525 0.86706 0.57155
 C1041 C 0.44810 0.84732 0.57832
 H1042 H 0.45580 0.83967 0.59141
 O1043 O 0.52076 1.10495 0.57521
 O1044 O 0.52086 1.12961 0.59952
 C1045 C 0.52797 1.12208 0.58247
 C1046 C 0.54518 1.13297 0.57123
 C1047 C 0.55234 1.15272 0.57800
 H1048 H 0.54470 1.16033 0.59115
 O1049 O 0.39527 0.92482 0.52080
 O1050 O 0.37058 0.90054 0.52084
 C1051 C 0.37816 0.91754 0.52802
 C1052 C 0.36733 0.92871 0.54532
 C1053 C 0.34757 0.92197 0.55245
 H1054 H 0.33990 0.90890 0.54474
 O1055 O 0.60502 1.07548 0.52002
 O1056 O 0.62969 1.09977 0.51999
 C1057 C 0.62217 1.08274 0.52716
 C1058 C 0.63310 1.07153 0.54437
 C1059 C 0.65284 1.07833 0.55151
 H1060 H 0.66043 1.09150 0.54387
 O1061 O 0.52084 1.07613 0.60390
 O1062 O 0.52097 1.10064 0.62835
 C1063 C 0.52806 1.08351 0.62096
 C1064 C 0.54513 1.07224 0.63205
 C1065 C 0.55226 1.07922 0.65171
 H1066 H 0.54476 1.09262 0.65903
 O1067 O 0.47986 0.92358 0.60435
 O1068 O 0.47991 0.89905 0.62879
 C1069 C 0.47277 0.91618 0.62146
 C1070 C 0.45577 0.92743 0.63269
 C1071 C 0.44872 0.92039 0.65236
 H1072 H 0.45621 0.90696 0.65962
 O1073 O 0.60453 1.02042 0.57563
 O1074 O 0.62902 1.02045 0.60010
 C1075 C 0.62161 1.02759 0.58301
 C1076 C 0.63271 1.04469 0.57179
 C1077 C 0.65237 1.05180 0.57881
 H1078 H 0.65968 1.04427 0.59219
 O1079 O 0.39618 0.97952 0.57671
 O1080 O 0.37181 0.97950 0.60132
 C1081 C 0.37910 0.97239 0.58415
 C1082 C 0.36789 0.95539 0.57290
 C1083 C 0.34821 0.94833 0.57992
 H1084 H 0.34094 0.95582 0.59335
 O1085 O 0.57633 1.10431 0.52015
 O1086 O 0.60087 1.12873 0.52012
 C1087 C 0.58377 1.12138 0.52729
 C1088 C 0.57259 1.13253 0.54438
 C1089 C 0.57963 1.15219 0.55146
 H1090 H 0.59302 1.15949 0.54392
 O1091 O 0.42384 0.89588 0.52068
 O1092 O 0.39929 0.87146 0.52072
 C1093 C 0.41644 0.87879 0.52782
 C1094 C 0.42770 0.86759 0.54483
 C1095 C 0.42068 0.84792 0.55191
 H1096 H 0.40726 0.84065 0.54443
 O1097 O 0.57585 0.97927 0.60422
 O1098 O 0.60025 0.97926 0.62879
 C1099 C 0.58322 0.97205 0.62129
 C1100 C 0.57213 0.95477 0.63223
 C1101 C 0.57913 0.94761 0.65188
 H1102 H 0.59236 0.95526 0.65932
 O1103 O 0.42515 1.02045 0.60526
 O1104 O 0.40093 1.02048 0.63001
 C1105 C 0.41792 1.02765 0.62240
 C1106 C 0.42913 1.04493 0.63322
 C1107 C 0.42241 1.05208 0.65298
 H1108 H 0.40932 1.04440 0.66065
 O1109 O 0.47976 1.10481 0.57526
 O1110 O 0.47983 1.12948 0.59955
 C1111 C 0.47260 1.12193 0.58256
 C1112 C 0.45530 1.13281 0.57143
 C1113 C 0.44819 1.15256 0.57821
 H1114 H 0.45591 1.16019 0.59129
 O1115 O 0.52073 0.89492 0.57536
 O1116 O 0.52082 0.87027 0.59967
 C1117 C 0.52793 0.87780 0.58262
 C1118 C 0.54513 0.86689 0.57137
 C1119 C 0.55229 0.84715 0.57813
 H1120 H 0.54468 0.83955 0.59131
 O1121 O 0.60486 0.92437 0.52013
 O1122 O 0.62949 0.90003 0.52006
 C1123 C 0.62199 0.91706 0.52726
 C1124 C 0.63297 0.92823 0.54445
 C1125 C 0.65263 0.92128 0.55160
 H1126 H 0.66008 0.90803 0.54398
 O1127 O 0.39516 1.07517 0.52079
 O1128 O 0.37049 1.09946 0.52091
 C1129 C 0.37808 1.08245 0.52806
 C1130 C 0.36728 1.07128 0.54539
 C1131 C 0.34753 1.07802 0.55255
 H1132 H 0.33986 1.09109 0.54485
 Cu1133 Cu 0.50027 0.91173 0.58737
 Cu1134 Cu 0.50035 0.88222 0.61664
 Cu1135 Cu 0.50031 1.08811 0.58720
 Cu1136 Cu 0.50043 1.11762 0.61647
 Cu1137 Cu 0.41195 0.91282 0.50025
 Cu1138 Cu 0.38242 0.88358 0.50028
 Cu1139 Cu 0.58804 0.91237 0.49969
 Cu1140 Cu 0.61753 0.88309 0.49958
 Cu1141 Cu 0.41181 1.08716 0.50020
 Cu1142 Cu 0.38229 1.11642 0.50033
 Cu1143 Cu 0.58813 1.08747 0.49962
 Cu1144 Cu 0.61766 1.11672 0.49955
 Cu1145 Cu 0.41309 0.99997 0.58856
 Cu1146 Cu 0.38393 0.99997 0.61817
 Cu1147 Cu 0.58777 0.99987 0.58753
 Cu1148 Cu 0.61711 0.99989 0.61696
 C1149 C 0.55499 0.94474 0.62265
 H1150 H 0.54973 0.94997 0.60734
 C1151 C 0.56925 0.93061 0.66193
 C1152 C 0.44602 1.05507 0.62331
 H1153 H 0.45114 1.04978 0.60797
 C1154 C 0.43213 1.06939 0.66265
 C1155 C 0.37720 1.05440 0.55555
 H1156 H 0.39252 1.04926 0.55024
 C1157 C 0.33786 1.06832 0.56988
 C1158 C 0.62337 0.94538 0.55446
 H1159 H 0.60805 0.95060 0.54925
 C1160 C 0.66269 0.93120 0.56857
 C1161 C 0.55519 0.87671 0.55437
 H1162 H 0.54990 0.89203 0.54921
 C1163 C 0.56952 0.83739 0.56834
 C1164 C 0.44510 1.12294 0.55454
 H1165 H 0.45035 1.10761 0.54938
 C1166 C 0.43089 1.16229 0.56853
 C1167 C 0.44595 0.94482 0.62336
 H1168 H 0.45108 0.95011 0.60803
 C1169 C 0.43203 0.93051 0.66270
 C1170 C 0.55495 1.05488 0.62263
 H1171 H 0.54976 1.04963 0.60731
 C1172 C 0.56900 1.06912 0.66195
 C1173 C 0.44509 0.87694 0.55465
 H1174 H 0.45037 0.89227 0.54949
 C1175 C 0.43080 0.83762 0.56862
 C1176 C 0.55526 1.12314 0.55426
 H1177 H 0.54997 1.10782 0.54910
 C1178 C 0.56959 1.16245 0.56823
 C1179 C 0.37723 0.94558 0.55551
 H1180 H 0.39257 0.95071 0.55023
 C1181 C 0.33787 0.93167 0.56977
 C1182 C 0.62330 1.05455 0.55447
 H1183 H 0.60798 1.04936 0.54920
 C1184 C 0.66260 1.06859 0.56876
 O1185 O 0.47925 0.42366 0.89580
 O1186 O 0.47914 0.39914 0.87136
 C1187 C 0.47205 0.41627 0.87873
 C1188 C 0.45499 0.42753 0.86762
 C1189 C 0.44788 0.42055 0.84795
 H1190 H 0.45538 0.40716 0.84063
 O1191 O 0.52029 0.57620 0.89565
 O1192 O 0.52020 0.60075 0.87123
 C1193 C 0.52733 0.58360 0.87852
 C1194 C 0.54429 0.57234 0.86726
 C1195 C 0.55132 0.57937 0.84757
 H1196 H 0.54382 0.59279 0.84031
 O1197 O 0.39565 0.47939 0.92404
 O1198 O 0.37114 0.47944 0.89959
 C1199 C 0.37854 0.47227 0.91669
 C1200 C 0.36740 0.45522 0.92793
 C1201 C 0.34774 0.44811 0.92093
 H1202 H 0.34045 0.45561 0.90752
 O1203 O 0.60400 0.52047 0.92327
 O1204 O 0.62835 0.52048 0.89864
 C1205 C 0.62106 0.52762 0.91579
 C1206 C 0.63225 0.54469 0.92697
 C1207 C 0.65192 0.55175 0.91991
 H1208 H 0.65918 0.54423 0.90650
 O1209 O 0.42368 0.39573 0.97967
 O1210 O 0.39914 0.37131 0.97978
 C1211 C 0.41624 0.37865 0.97257
 C1212 C 0.42740 0.36749 0.95547
 C1213 C 0.42035 0.34782 0.94841
 H1214 H 0.40697 0.34053 0.95596
 O1215 O 0.57648 0.60441 0.97944
 O1216 O 0.60100 0.62886 0.97927
 C1217 C 0.58381 0.62152 0.97227
 C1218 C 0.57245 0.63265 0.95529
 C1219 C 0.57930 0.65239 0.94818
 H1220 H 0.59265 0.65981 0.95564
 O1221 O 0.42441 0.52043 0.89541
 O1222 O 0.40003 0.52054 0.87083
 C1223 C 0.41708 0.52768 0.87833
 C1224 C 0.42824 0.54496 0.86746
 C1225 C 0.42144 0.55211 0.84772
 H1226 H 0.40831 0.54445 0.84011
 O1227 O 0.57506 0.47942 0.89480
 O1228 O 0.59927 0.47940 0.87005
 C1229 C 0.58228 0.47222 0.87766
 C1230 C 0.57107 0.45494 0.86683
 C1231 C 0.57782 0.44778 0.84709
 H1232 H 0.59094 0.45545 0.83944
 O1233 O 0.52027 0.39496 0.92451
 O1234 O 0.52020 0.37029 0.90021
 C1235 C 0.52743 0.37784 0.91720
 C1236 C 0.54474 0.36697 0.92831
 C1237 C 0.55186 0.34722 0.92151
 H1238 H 0.54412 0.33959 0.90844
 O1239 O 0.47961 0.60492 0.92484
 O1240 O 0.47948 0.62960 0.90055
 C1241 C 0.47241 0.62207 0.91762
 C1242 C 0.45525 0.63298 0.92893
 C1243 C 0.44810 0.65274 0.92220
 H1244 H 0.45571 0.66036 0.90904
 O1245 O 0.39556 0.57527 0.97987
 O1246 O 0.37093 0.59961 0.97997
 C1247 C 0.37845 0.58261 0.97272
 C1248 C 0.36748 0.57151 0.95546
 C1249 C 0.34783 0.57852 0.94833
 H1250 H 0.34038 0.59174 0.95601
 O1251 O 0.60493 0.42462 0.97906
 O1252 O 0.62959 0.40032 0.97893
 C1253 C 0.62204 0.41736 0.97181
 C1254 C 0.63288 0.42859 0.95456
 C1255 C 0.65266 0.42189 0.94743
 H1256 H 0.66032 0.40879 0.95510
 O1257 O 0.47937 0.57621 0.89603
 O1258 O 0.47924 0.60076 0.87161
 C1259 C 0.47214 0.58364 0.87899
 C1260 C 0.45504 0.57243 0.86789
 C1261 C 0.44792 0.57946 0.84824
 H1262 H 0.45544 0.59285 0.84093
 O1263 O 0.52017 0.42362 0.89567
 O1264 O 0.52012 0.39909 0.87123
 C1265 C 0.52727 0.41621 0.87857
 C1266 C 0.54431 0.42744 0.86737
 C1267 C 0.55138 0.42040 0.84770
 H1268 H 0.54388 0.40698 0.84043
 O1269 O 0.60406 0.47953 0.92331
 O1270 O 0.62841 0.47950 0.89869
 C1271 C 0.62113 0.47240 0.91586
 C1272 C 0.63234 0.45538 0.92708
 C1273 C 0.65204 0.44836 0.92007
 H1274 H 0.65931 0.45590 0.90667
 O1275 O 0.39562 0.52029 0.92414
 O1276 O 0.37108 0.52041 0.89971
 C1277 C 0.37850 0.52746 0.91684
 C1278 C 0.36744 0.54451 0.92818
 C1279 C 0.34770 0.55164 0.92137
 H1280 H 0.34024 0.54416 0.90804
 O1281 O 0.42412 0.60421 0.97997
 O1282 O 0.39960 0.62866 0.98008
 C1283 C 0.41670 0.62133 0.97289
 C1284 C 0.42789 0.63252 0.95584
 C1285 C 0.42085 0.65220 0.94879
 H1286 H 0.40748 0.65949 0.95636
 O1287 O 0.57629 0.39573 0.97910
 O1288 O 0.60082 0.37129 0.97897
 C1289 C 0.58367 0.37865 0.97192
 C1290 C 0.57236 0.36748 0.95494
 C1291 C 0.57936 0.34781 0.94783
 H1292 H 0.59280 0.34053 0.95527
 O1293 O 0.57506 0.52042 0.89471
 O1294 O 0.59926 0.52042 0.86995
 C1295 C 0.58226 0.52759 0.87755
 C1296 C 0.57103 0.54483 0.86669
 C1297 C 0.57775 0.55196 0.84692
 H1298 H 0.59084 0.54428 0.83926
 O1299 O 0.42439 0.47943 0.89527
 O1300 O 0.40002 0.47948 0.87068
 C1301 C 0.41706 0.47228 0.87816
 C1302 C 0.42822 0.45503 0.86722
 C1303 C 0.42142 0.44792 0.84748
 H1304 H 0.40829 0.45561 0.83988
 O1305 O 0.52062 0.60472 0.92463
 O1306 O 0.52051 0.62938 0.90033
 C1307 C 0.52779 0.62181 0.91730
 C1308 C 0.54511 0.63272 0.92836
 C1309 C 0.55227 0.65237 0.92137
 H1310 H 0.54457 0.65985 0.90819
 O1311 O 0.47927 0.39499 0.92464
 O1312 O 0.47917 0.37033 0.90034
 C1313 C 0.47205 0.37788 0.91739
 C1314 C 0.45482 0.36701 0.92862
 C1315 C 0.44766 0.34726 0.92188
 H1316 H 0.45530 0.33963 0.90874
 O1317 O 0.60497 0.57538 0.97910
 O1318 O 0.62964 0.59967 0.97893
 C1319 C 0.62204 0.58266 0.97180
 C1320 C 0.63282 0.57147 0.95447
 C1321 C 0.65256 0.57820 0.94729
 H1322 H 0.66023 0.59129 0.95496
 O1323 O 0.39502 0.42456 0.97981
 O1324 O 0.37034 0.40028 0.97992
 C1325 C 0.37787 0.41729 0.97270
 C1326 C 0.36695 0.42847 0.95545
 C1327 C 0.34721 0.42167 0.94832
 H1328 H 0.33960 0.40854 0.95599
 Cu1329 Cu 0.49975 0.41175 0.91261
 Cu1330 Cu 0.49964 0.38223 0.88335
 Cu1331 Cu 0.49998 0.58807 0.91274
 Cu1332 Cu 0.49984 0.61761 0.88350
 Cu1333 Cu 0.41248 0.49988 0.91214
 Cu1334 Cu 0.38312 0.49997 0.88273
 Cu1335 Cu 0.58711 0.49996 0.91147
 Cu1336 Cu 0.61625 0.49995 0.88184
 C1337 C 0.44517 0.44488 0.87704
 H1338 H 0.45035 0.45013 0.89236
 C1339 C 0.43113 0.43066 0.83771
 C1340 C 0.55414 0.55497 0.87660
 H1341 H 0.54904 0.54970 0.89194
 C1342 C 0.56801 0.56925 0.83723
 C1343 C 0.37678 0.44540 0.94530
 H1344 H 0.39210 0.45058 0.95057
 C1345 C 0.33748 0.43137 0.93103
 C1346 C 0.62291 0.55456 0.94435
 H1347 H 0.60760 0.54942 0.94967
 C1348 C 0.66225 0.56846 0.93000
 C1349 C 0.44473 0.37686 0.94558
 H1350 H 0.45003 0.39218 0.95072
 C1351 C 0.43040 0.33754 0.93165
 C1352 C 0.55520 0.62307 0.94542
 H1353 H 0.54998 0.60776 0.95066
 C1354 C 0.56932 0.66237 0.93119
 C1355 C 0.44519 0.55508 0.87729
 H1356 H 0.45038 0.54979 0.89260
 C1357 C 0.43117 0.56938 0.83798
 C1358 C 0.55416 0.44481 0.87672
 H1359 H 0.54901 0.45011 0.89204
 C1360 C 0.56810 0.43048 0.83739
 C1361 C 0.55495 0.37684 0.94518
 H1362 H 0.54969 0.39216 0.95036
 C1363 C 0.56919 0.33751 0.93115
 C1364 C 0.44519 0.62313 0.94591
 H1365 H 0.45048 0.60780 0.95102
 C1366 C 0.43087 0.66248 0.93201
 C1367 C 0.37707 0.55440 0.94539
 H1368 H 0.39239 0.54914 0.95059
 C1369 C 0.33777 0.56867 0.93132
 C1370 C 0.62299 0.44550 0.94443
 H1371 H 0.60764 0.45061 0.94971
 C1372 C 0.66237 0.43165 0.93016
 O1373 O 0.52110 0.42380 1.10386
 O1374 O 0.52124 0.39925 1.12829
 C1375 C 0.52835 0.41638 1.12089
 C1376 C 0.54548 0.42758 1.13196
 C1377 C 0.55261 0.42056 1.15161
 H1378 H 0.54509 0.40718 1.15893
 O1379 O 0.48023 0.57613 1.10449
 O1380 O 0.48030 0.60066 1.12893
 C1381 C 0.47312 0.58355 1.12159
 C1382 C 0.45607 0.57235 1.13277
 C1383 C 0.44900 0.57939 1.15243
 H1384 H 0.45652 0.59278 1.15971
 O1385 O 0.39633 0.52036 1.07669
 O1386 O 0.37197 0.52039 1.10130
 C1387 C 0.37926 0.52750 1.08414
 C1388 C 0.36806 0.54452 1.07290
 C1389 C 0.34838 0.55157 1.07991
 H1390 H 0.34110 0.54406 1.09332
 O1391 O 0.60500 0.47958 1.07564
 O1392 O 0.62953 0.47947 1.10007
 C1393 C 0.62211 0.47241 1.08295
 C1394 C 0.63317 0.45535 1.07164
 C1395 C 0.65291 0.44823 1.07847
 H1396 H 0.66038 0.45575 1.09177
 O1397 O 0.57637 0.39567 1.02001
 O1398 O 0.60088 0.37121 1.01991
 C1399 C 0.58378 0.37856 1.02710
 C1400 C 0.57257 0.36738 1.04415
 C1401 C 0.57957 0.34769 1.05119
 H1402 H 0.59293 0.34038 1.04363
 O1403 O 0.42426 0.60402 1.02090
 O1404 O 0.39973 0.62845 1.02103
 C1405 C 0.41688 0.62110 1.02809
 C1406 C 0.42815 0.63225 1.04511
 C1407 C 0.42113 0.65191 1.05222
 H1408 H 0.40770 0.65918 1.04475
 O1409 O 0.42531 0.47947 1.10528
 O1410 O 0.40110 0.47944 1.13003
 C1411 C 0.41811 0.47229 1.12243
 C1412 C 0.42937 0.45507 1.13329
 C1413 C 0.42268 0.44793 1.15306
 H1414 H 0.40958 0.45559 1.16073
 O1415 O 0.57624 0.52052 1.10441
 O1416 O 0.60063 0.52045 1.12898
 C1417 C 0.58360 0.52768 1.12151
 C1418 C 0.57249 0.54491 1.13250
 C1419 C 0.57948 0.55205 1.15216
 H1420 H 0.59272 0.54439 1.15959
 O1421 O 0.47981 0.39528 1.07532
 O1422 O 0.47992 0.37063 1.09963
 C1423 C 0.47262 0.37819 1.08267
 C1424 C 0.45528 0.36731 1.07163
 C1425 C 0.44810 0.34767 1.07863
 H1426 H 0.45581 0.34017 1.09180
 O1427 O 0.52119 0.60472 1.07555
 O1428 O 0.52130 0.62937 1.09986
 C1429 C 0.52842 0.62183 1.08281
 C1430 C 0.54564 0.63272 1.07156
 C1431 C 0.55278 0.65246 1.07832
 H1432 H 0.54516 0.66006 1.09149
 O1433 O 0.39534 0.42461 1.02082
 O1434 O 0.37066 0.40033 1.02098
 C1435 C 0.37826 0.41735 1.02812
 C1436 C 0.36748 0.42853 1.04545
 C1437 C 0.34773 0.42179 1.05262
 H1438 H 0.34006 0.40871 1.04493
 O1439 O 0.60545 0.57545 1.02009
 O1440 O 0.63012 0.59974 1.01998
 C1441 C 0.62263 0.58271 1.02718
 C1442 C 0.63360 0.57150 1.04436
 C1443 C 0.65334 0.57830 1.05149
 H1444 H 0.66092 0.59147 1.04385
 O1445 O 0.52114 0.57607 1.10443
 O1446 O 0.52127 0.60056 1.12890
 C1447 C 0.52834 0.58342 1.12152
 C1448 C 0.54542 0.57213 1.13257
 C1449 C 0.55254 0.57895 1.15231
 H1450 H 0.54502 0.59225 1.15978
 O1451 O 0.48017 0.42377 1.10432
 O1452 O 0.48029 0.39923 1.12875
 C1453 C 0.47314 0.41637 1.12146
 C1454 C 0.45617 0.42761 1.13272
 C1455 C 0.44917 0.42059 1.15243
 H1456 H 0.45671 0.40719 1.15969
 O1457 O 0.60498 0.52049 1.07567
 O1458 O 0.62950 0.52042 1.10011
 C1459 C 0.62210 0.52759 1.08302
 C1460 C 0.63322 0.54465 1.07179
 C1461 C 0.65288 0.55176 1.07879
 H1462 H 0.66020 0.54423 1.09217
 O1463 O 0.39634 0.47943 1.07675
 O1464 O 0.37198 0.47941 1.10136
 C1465 C 0.37927 0.47229 1.08420
 C1466 C 0.36807 0.45525 1.07299
 C1467 C 0.34840 0.44818 1.08005
 H1468 H 0.34114 0.45568 1.09348
 O1469 O 0.57668 0.60416 1.02035
 O1470 O 0.60120 0.62860 1.02025
 C1471 C 0.58412 0.62122 1.02749
 C1472 C 0.57299 0.63233 1.04464
 C1473 C 0.58002 0.65199 1.05172
 H1474 H 0.59337 0.65932 1.04415
 O1475 O 0.42389 0.39565 1.02057
 O1476 O 0.39936 0.37121 1.02074
 C1477 C 0.41655 0.37855 1.02775
 C1478 C 0.42790 0.36742 1.04474
 C1479 C 0.42104 0.34769 1.05185
 H1480 H 0.40767 0.34029 1.04440
 O1481 O 0.57617 0.47951 1.10435
 O1482 O 0.60056 0.47940 1.12892
 C1483 C 0.58349 0.47227 1.12143
 C1484 C 0.57231 0.45502 1.13233
 C1485 C 0.57913 0.44787 1.15206
 H1486 H 0.59228 0.45552 1.15965
 O1487 O 0.42526 0.52045 1.10527
 O1488 O 0.40104 0.52046 1.13001
 C1489 C 0.41803 0.52764 1.12241
 C1490 C 0.42925 0.54490 1.13326
 C1491 C 0.42250 0.55206 1.15301
 H1492 H 0.40937 0.54441 1.16064
 O1493 O 0.48019 0.60477 1.07564
 O1494 O 0.48025 0.62944 1.09994
 C1495 C 0.47303 0.62189 1.08294
 C1496 C 0.45573 0.63276 1.07180
 C1497 C 0.44857 0.65250 1.07860
 H1498 H 0.45627 0.66013 1.09170
 O1499 O 0.52083 0.39503 1.07510
 O1500 O 0.52096 0.37036 1.09940
 C1501 C 0.52802 0.37788 1.08233
 C1502 C 0.54518 0.36695 1.07103
 C1503 C 0.55229 0.34718 1.07775
 H1504 H 0.54465 0.33957 1.09090
 O1505 O 0.60503 0.42450 1.02007
 O1506 O 0.62966 0.40017 1.01996
 C1507 C 0.62215 0.41717 1.02720
 C1508 C 0.63313 0.42829 1.04443
 C1509 C 0.65278 0.42130 1.05157
 H1510 H 0.66022 0.40806 1.04392
 O1511 O 0.39553 0.57522 1.02089
 O1512 O 0.37087 0.59952 1.02101
 C1513 C 0.37842 0.58248 1.02813
 C1514 C 0.36755 0.57127 1.04538
 C1515 C 0.34779 0.57800 1.05252
 H1516 H 0.34014 0.59110 1.04483
 Cu1517 Cu 0.50047 0.41191 1.08720
 Cu1518 Cu 0.50062 0.38238 1.11645
 Cu1519 Cu 0.50069 0.58798 1.08758
 Cu1520 Cu 0.50080 0.61749 1.11685
 Cu1521 Cu 0.41192 0.41259 1.00021
 Cu1522 Cu 0.38239 0.38335 1.00038
 Cu1523 Cu 0.58821 0.41259 0.99957
 Cu1524 Cu 0.61772 0.38331 0.99942
 Cu1525 Cu 0.41231 0.58723 1.00040
 Cu1526 Cu 0.38280 0.61650 1.00054
 Cu1527 Cu 0.58846 0.58740 0.99976
 Cu1528 Cu 0.61797 0.61666 0.99959
 Cu1529 Cu 0.41325 0.49993 1.08854
 Cu1530 Cu 0.38409 0.49992 1.11816
 Cu1531 Cu 0.58813 0.50002 1.08758
 Cu1532 Cu 0.61750 0.49993 1.11700
 C1533 C 0.55533 0.44491 1.12253
 H1534 H 0.55013 0.45019 1.10722
 C1535 C 0.56939 0.43062 1.16183
 C1536 C 0.44619 0.55500 1.12340
 H1537 H 0.45134 0.54970 1.10808
 C1538 C 0.43225 0.56933 1.16272
 C1539 C 0.37743 0.55436 1.05553
 H1540 H 0.39276 0.54923 1.05026
 C1541 C 0.33807 0.56828 1.06980
 C1542 C 0.62354 0.44542 1.05446
 H1543 H 0.60822 0.45067 1.04926
 C1544 C 0.66284 0.43118 1.06855
 C1545 C 0.55527 0.37679 1.05407
 H1546 H 0.55001 0.39214 1.04895
 C1547 C 0.56951 0.33742 1.06795
 C1548 C 0.44555 0.62289 1.05490
 H1549 H 0.45083 0.60758 1.04972
 C1550 C 0.43125 0.66220 1.06893
 C1551 C 0.44627 0.44495 1.12338
 H1552 H 0.45136 0.45023 1.10803
 C1553 C 0.43246 0.43067 1.16276
 C1554 C 0.55535 0.55495 1.12293
 H1555 H 0.55010 0.54975 1.10761
 C1556 C 0.56959 0.56903 1.16223
 C1557 C 0.44517 0.37697 1.05459
 H1558 H 0.45041 0.39228 1.04934
 C1559 C 0.43102 0.33769 1.06882
 C1560 C 0.55570 0.62290 1.05457
 H1561 H 0.55041 0.60758 1.04941
 C1562 C 0.56999 0.66223 1.06852
 C1563 C 0.37739 0.44542 1.05559
 H1564 H 0.39271 0.45056 1.05028
 C1565 C 0.33806 0.43150 1.06994
 C1566 C 0.62380 0.55452 1.05447
 H1567 H 0.60848 0.54934 1.04921
 C1568 C 0.66311 0.56855 1.06873
 C1569 C 1.12375 1.12454 1.29584
 N1570 N 1.13534 1.11240 1.30896
 N1571 N 1.14349 1.12044 1.32646
 C1572 C 1.14045 1.14096 1.33150
 N1573 N 1.12879 1.15305 1.31833
 N1574 N 1.12057 1.14499 1.30087
 C1575 C 1.11506 1.11582 1.27634
 N1576 N 1.10225 1.12758 1.26403
 N1577 N 1.09462 1.11984 1.24616
 C1578 C 1.09961 1.10008 1.23989
 N1579 N 1.11242 1.08831 1.25221
 N1580 N 1.11998 1.09602 1.27013
 C1581 C 1.09151 1.09177 1.21997
 N1582 N 1.09803 1.07288 1.21258
 N1583 N 1.09094 1.06558 1.19430
 C1584 C 1.07699 1.07686 1.18273
 N1585 N 1.07043 1.09572 1.19024
 N1586 N 1.07757 1.10305 1.20847
 C1587 C 1.12488 0.62356 0.79606
 N1588 N 1.14531 0.62036 0.80117
 N1589 N 1.15334 0.62867 0.81860
 C1590 C 1.14125 0.64046 0.83166
 N1591 N 1.12076 0.64353 0.82653
 N1592 N 1.11274 0.63529 0.80906
 C1593 C 1.11619 0.61475 0.77661
 N1594 N 1.09644 0.61971 0.77029
 N1595 N 1.08874 0.61203 0.75242
 C1596 C 1.10049 0.59905 0.74025
 N1597 N 1.12020 0.59402 0.74661
 N1598 N 1.12792 0.60176 0.76444
 C1599 C 1.09220 0.59086 0.72035
 N1600 N 1.10340 0.57675 0.70899
 N1601 N 1.09609 0.56956 0.69077
 C1602 C 1.07733 0.57626 0.68313
 N1603 N 1.06613 0.59037 0.69457
 N1604 N 1.07340 0.59751 0.71284
 C1605 C 0.62362 1.12442 0.79563
 N1606 N 0.63532 1.11228 0.80866
 N1607 N 0.64348 1.12028 0.82617
 C1608 C 0.64036 1.14076 0.83132
 N1609 N 0.62861 1.15286 0.81824
 N1610 N 0.62037 1.14484 0.80077
 C1611 C 0.61490 1.11575 0.77613
 N1612 N 0.60201 1.12752 0.76389
 N1613 N 0.59435 1.11982 0.74602
 C1614 C 0.59935 1.10009 0.73968
 N1615 N 0.61223 1.08831 0.75192
 N1616 N 0.61983 1.09598 0.76984
 C1617 C 0.59122 1.09182 0.71975
 N1618 N 0.59775 1.07295 0.71232
 N1619 N 0.59064 1.06569 0.69403
 C1620 C 0.57668 1.07698 0.68249
 N1621 N 0.57012 1.09582 0.69005
 N1622 N 0.57727 1.10312 0.70829
 C1623 C 0.62492 0.62366 1.29589
 N1624 N 0.64534 0.62042 1.30104
 N1625 N 0.65334 0.62869 1.31850
 C1626 C 0.64124 0.64045 1.33156
 N1627 N 0.62076 0.64355 1.32641
 N1628 N 0.61277 0.63536 1.30890
 C1629 C 0.61625 0.61493 1.27639
 N1630 N 0.59651 0.61992 1.27007
 N1631 N 0.58883 0.61232 1.25215
 C1632 C 0.60059 0.59938 1.23995
 N1633 N 0.62029 0.59431 1.24632
 N1634 N 0.62799 0.60198 1.26419
 C1635 C 0.59232 0.59125 1.22002
 N1636 N 0.60353 0.57717 1.20863
 N1637 N 0.59623 0.57001 1.19039
 C1638 C 0.57746 0.57671 1.18276
 N1639 N 0.56625 0.59080 1.19422
 N1640 N 0.57352 0.59790 1.21251
 C1641 C 0.87683 0.87527 1.29584
 N1642 N 0.86508 0.88749 1.30875
 N1643 N 0.85675 0.87956 1.32623
 C1644 C 0.85977 0.85909 1.33145
 N1645 N 0.87157 0.84692 1.31848
 N1646 N 0.87996 0.85485 1.30105
 C1647 C 0.88573 0.88387 1.27637
 N1648 N 0.89862 0.87203 1.26421
 N1649 N 0.90642 0.87968 1.24638
 C1650 C 0.90156 0.89943 1.24001
 N1651 N 0.88868 0.91129 1.25218
 N1652 N 0.88094 0.90366 1.27006
 C1653 C 0.90979 0.90767 1.22010
 N1654 N 0.90335 0.92658 1.21268
 N1655 N 0.91050 0.93382 1.19439
 C1656 C 0.92441 0.92248 1.18284
 N1657 N 0.93090 0.90360 1.19039
 N1658 N 0.92371 0.89632 1.20863
 C1659 C 0.87703 0.37532 0.79595
 N1660 N 0.86535 0.38759 0.80888
 N1661 N 0.85700 0.37970 0.82636
 C1662 C 0.85993 0.35921 0.83158
 N1663 N 0.87166 0.34699 0.81860
 N1664 N 0.88008 0.35489 0.80116
 C1665 C 0.88594 0.38388 0.77648
 N1666 N 0.89875 0.37198 0.76430
 N1667 N 0.90656 0.37960 0.74645
 C1668 C 0.90177 0.39937 0.74009
 N1669 N 0.88897 0.41129 0.75228
 N1670 N 0.88123 0.40369 0.77018
 C1671 C 0.90999 0.40757 0.72016
 N1672 N 0.90362 0.42651 0.71276
 N1673 N 0.91074 0.43372 0.69446
 C1674 C 0.92456 0.42232 0.68287
 N1675 N 0.93099 0.40342 0.69039
 N1676 N 0.92383 0.39616 0.70865
 C1677 C 0.37686 0.87516 0.79613
 N1678 N 0.37991 0.85470 0.80125
 N1679 N 0.37149 0.84672 0.81865
 C1680 C 0.35974 0.85888 0.83168
 N1681 N 0.35682 0.87939 0.82655
 N1682 N 0.36517 0.88737 0.80911
 C1683 C 0.38575 0.88381 0.77670
 N1684 N 0.38100 0.90364 0.77046
 N1685 N 0.38874 0.91131 0.75260
 C1686 C 0.40156 0.89947 0.74036
 N1687 N 0.40639 0.87968 0.74666
 N1688 N 0.39860 0.87198 0.76448
 C1689 C 0.40978 0.90774 0.72047
 N1690 N 0.42366 0.89640 0.70896
 N1691 N 0.43084 0.90372 0.69073
 C1692 C 0.42438 0.92262 0.68324
 N1693 N 0.41050 0.93396 0.69483
 N1694 N 0.40337 0.92668 0.71311
 C1695 C 0.37727 0.37538 1.29620
 N1696 N 0.36556 0.38759 1.30916
 N1697 N 0.35717 0.37962 1.32659
 C1698 C 0.36006 0.35910 1.33170
 N1699 N 0.37183 0.34693 1.31869
 N1700 N 0.38029 0.35492 1.30132
 C1701 C 0.38620 0.38403 1.27679
 N1702 N 0.39906 0.37220 1.26458
 N1703 N 0.40688 0.37989 1.24677
 C1704 C 0.40206 0.39968 1.24047
 N1705 N 0.38923 0.41153 1.25269
 N1706 N 0.38147 0.40386 1.27055
 C1707 C 0.41029 0.40795 1.22058
 N1708 N 0.40386 0.42688 1.21320
 N1709 N 0.41098 0.43414 1.19492
 C1710 C 0.42486 0.42281 1.18333
 N1711 N 0.43134 0.40391 1.19083
 N1712 N 0.42417 0.39661 1.20907
 C1713 C 0.87638 1.12471 0.70418
 N1714 N 0.86470 1.11251 0.69119
 N1715 N 0.85649 1.12045 0.67367
 C1716 C 0.85956 1.14093 0.66847
 N1717 N 0.87130 1.15308 0.68151
 N1718 N 0.87957 1.14512 0.69899
 C1719 C 0.88514 1.11609 0.72370
 N1720 N 0.89800 1.12791 0.73591
 N1721 N 0.90568 1.12025 0.75379
 C1722 C 0.90073 1.10052 0.76016
 N1723 N 0.88788 1.08869 0.74794
 N1724 N 0.88026 1.09632 0.73001
 C1725 C 0.90888 1.09229 0.78010
 N1726 N 0.90238 1.07341 0.78755
 N1727 N 0.90948 1.06617 0.80585
 C1728 C 0.92341 1.07749 0.81739
 N1729 N 0.92995 1.09634 0.80983
 N1730 N 0.92280 1.10361 0.79157
 C1731 C 0.87671 0.62490 0.20444
 N1732 N 0.86505 0.61266 0.19146
 N1733 N 0.85686 0.62056 0.17391
 C1734 C 0.85992 0.64103 0.16867
 N1735 N 0.87163 0.65321 0.18170
 N1736 N 0.87989 0.64530 0.19921
 C1737 C 0.88546 0.61633 0.22398
 N1738 N 0.89831 0.62818 0.23618
 N1739 N 0.90599 0.62056 0.25408
 C1740 C 0.90105 0.60083 0.26047
 N1741 N 0.88822 0.58897 0.24827
 N1742 N 0.88059 0.59656 0.23032
 C1743 C 0.90919 0.59263 0.28043
 N1744 N 0.90269 0.57376 0.28790
 N1745 N 0.90978 0.56655 0.30621
 C1746 C 0.92370 0.57788 0.31775
 N1747 N 0.93025 0.59672 0.31016
 N1748 N 0.92311 0.60397 0.29190
 C1749 C 0.37566 1.12388 0.20407
 N1750 N 0.38776 1.13556 0.19099
 N1751 N 0.37970 1.14369 0.17347
 C1752 C 0.35920 1.14053 0.16839
 N1753 N 0.34716 1.12879 0.18153
 N1754 N 0.35523 1.12060 0.19899
 C1755 C 0.38439 1.11520 0.22357
 N1756 N 0.37269 1.10224 0.23580
 N1757 N 0.38044 1.09462 0.25366
 C1758 C 0.40013 1.09974 0.26001
 N1759 N 0.41184 1.11269 0.24777
 N1760 N 0.40412 1.12026 0.22985
 C1761 C 0.40844 1.09163 0.27992
 N1762 N 0.42723 1.09832 0.28744
 N1763 N 0.43451 1.09121 0.30572
 C1764 C 0.42333 1.07708 0.31717
 N1765 N 0.40458 1.07036 0.30954
 N1766 N 0.39726 1.07751 0.29131
 C1767 C 0.37672 0.62458 0.70419
 N1768 N 0.37983 0.64503 0.69908
 N1769 N 0.37156 0.65300 0.68160
 C1770 C 0.35990 0.64084 0.66850
 N1771 N 0.35693 0.62033 0.67362
 N1772 N 0.36513 0.61237 0.69114
 C1773 C 0.38545 0.61595 0.72371
 N1774 N 0.38060 0.59615 0.72997
 N1775 N 0.38819 0.58850 0.74790
 C1776 C 0.40096 0.60034 0.76019
 N1777 N 0.40588 0.62010 0.75389
 N1778 N 0.39823 0.62778 0.73600
 C1779 C 0.40906 0.59209 0.78014
 N1780 N 0.42294 0.60342 0.79166
 N1781 N 0.43006 0.59613 0.80992
 C1782 C 0.42353 0.57726 0.81744
 N1783 N 0.40964 0.56593 0.80585
 N1784 N 0.40257 0.57319 0.78754
 C1785 C 1.12319 0.87561 0.70361
 N1786 N 1.13489 0.88776 0.69059
 N1787 N 1.14323 0.87973 0.67317
 C1788 C 1.14029 0.85920 0.66812
 N1789 N 1.12854 0.84709 0.68119
 N1790 N 1.12012 0.85514 0.69856
 C1791 C 1.11431 0.88432 0.72302
 N1792 N 1.10143 0.87254 0.73526
 N1793 N 1.09366 0.88028 0.75306
 C1794 C 1.09854 0.90006 0.75933
 N1795 N 1.11140 0.91186 0.74709
 N1796 N 1.11911 0.90414 0.72923
 C1797 C 1.09032 0.90836 0.77921
 N1798 N 1.09680 0.92727 0.78660
 N1799 N 1.08966 0.93456 0.80487
 C1800 C 1.07573 0.92326 0.81644
 N1801 N 1.06921 0.90439 0.80892
 N1802 N 1.07639 0.89706 0.79070
 C1803 C 1.12344 0.37539 0.20382
 N1804 N 1.13514 0.38754 0.19080
 N1805 N 1.14347 0.37950 0.17338
 C1806 C 1.14051 0.35897 0.16832
 N1807 N 1.12875 0.34687 0.18139
 N1808 N 1.12035 0.35492 0.19877
 C1809 C 1.11457 0.38411 0.22323
 N1810 N 1.10169 0.37234 0.23548
 N1811 N 1.09391 0.38009 0.25328
 C1812 C 1.09880 0.39987 0.25953
 N1813 N 1.11166 0.41166 0.24728
 N1814 N 1.11937 0.40393 0.22943
 C1815 C 1.09059 0.40821 0.27940
 N1816 N 1.09705 0.42713 0.28676
 N1817 N 1.08992 0.43444 0.30502
 C1818 C 1.07598 0.42317 0.31660
 N1819 N 1.06947 0.40428 0.30912
 N1820 N 1.07665 0.39692 0.29091
 C1821 C 0.62337 0.87549 0.20385
 N1822 N 0.62027 0.85504 0.19873
 N1823 N 0.62868 0.84703 0.18134
 C1824 C 0.64045 0.85916 0.16831
 N1825 N 0.64343 0.87967 0.17343
 N1826 N 0.63509 0.88767 0.19087
 C1827 C 0.61448 0.88416 0.22328
 N1828 N 0.61927 0.90397 0.22953
 N1829 N 0.61154 0.91165 0.24739
 C1830 C 0.59867 0.89983 0.25960
 N1831 N 0.59379 0.88007 0.25329
 N1832 N 0.60159 0.87236 0.23548
 C1833 C 0.59044 0.90812 0.27949
 N1834 N 0.57651 0.89681 0.29097
 N1835 N 0.56932 0.90412 0.30920
 C1836 C 0.57584 0.92299 0.31672
 N1837 N 0.58977 0.93430 0.30516
 N1838 N 0.59690 0.92703 0.28689
 C1839 C 0.62347 0.37521 0.70401
 N1840 N 0.63518 0.38742 0.69105
 N1841 N 0.64352 0.37946 0.67359
 C1842 C 0.64057 0.35896 0.66845
 N1843 N 0.62882 0.34679 0.68146
 N1844 N 0.62040 0.35476 0.69887
 C1845 C 0.61455 0.38385 0.72344
 N1846 N 0.60169 0.37201 0.73563
 N1847 N 0.59386 0.37970 0.75345
 C1848 C 0.59868 0.39948 0.75976
 N1849 N 0.61154 0.41133 0.74756
 N1850 N 0.61930 0.40367 0.72970
 C1851 C 0.59043 0.40774 0.77964
 N1852 N 0.59683 0.42668 0.78703
 N1853 N 0.58967 0.43394 0.80529
 C1854 C 0.57577 0.42261 0.81686
 N1855 N 0.56931 0.40371 0.80935
 N1856 N 0.57652 0.39640 0.79113
 C1857 C 1.29602 1.12427 1.12368
 N1858 N 1.30106 1.14471 1.12039
 N1859 N 1.31849 1.15283 1.12862
 C1860 C 1.33162 1.14082 1.14040
 N1861 N 1.32657 1.12032 1.14356
 N1862 N 1.30910 1.11222 1.13541
 C1863 C 1.27656 1.11550 1.11497
 N1864 N 1.27031 1.09575 1.12002
 N1865 N 1.25242 1.08798 1.11242
 C1866 C 1.24019 1.09966 1.09944
 N1867 N 1.24650 1.11936 1.09432
 N1868 N 1.26433 1.12716 1.10198
 C1869 C 1.22030 1.09130 1.09129
 N1870 N 1.20891 1.10246 1.07717
 N1871 N 1.19071 1.09510 1.07000
 C1872 C 1.18311 1.07633 1.07671
 N1873 N 1.19456 1.06517 1.09084
 N1874 N 1.21282 1.07249 1.09797
 C1875 C 1.29639 0.62314 0.62459
 N1876 N 1.30146 0.62006 0.64505
 N1877 N 1.31885 0.62846 0.65307
 C1878 C 1.33191 0.64021 0.64094
 N1879 N 1.32682 0.64317 0.62042
 N1880 N 1.30939 0.63484 0.61241
 C1881 C 1.27697 0.61424 0.61590
 N1882 N 1.27074 0.61902 0.59608
 N1883 N 1.25289 0.61128 0.58839
 C1884 C 1.24067 0.59841 0.60021
 N1885 N 1.24696 0.59355 0.61998
 N1886 N 1.26476 0.60135 0.62770
 C1887 C 1.22080 0.59017 0.59192
 N1888 N 1.20932 0.57624 0.60323
 N1889 N 1.19110 0.56904 0.59592
 C1890 C 1.18358 0.57555 0.57704
 N1891 N 1.19513 0.58948 0.56573
 N1892 N 1.21340 0.59662 0.57300
 C1893 C 0.79604 1.12340 0.62442
 N1894 N 0.80910 1.13506 0.61228
 N1895 N 0.82656 1.14331 0.62032
 C1896 C 0.83160 1.14031 0.64084
 N1897 N 0.81849 1.12859 0.65294
 N1898 N 0.80108 1.12027 0.64488
 C1899 C 0.77659 1.11462 0.61570
 N1900 N 0.76431 1.10175 0.62745
 N1901 N 0.74648 1.09405 0.61970
 C1902 C 0.74022 1.09899 0.59994
 N1903 N 0.75250 1.11184 0.58816
 N1904 N 0.77038 1.11949 0.59589
 C1905 C 0.72033 1.09083 0.59161
 N1906 N 0.71295 1.09734 0.57271
 N1907 N 0.69468 1.09023 0.56540
 C1908 C 0.68311 1.07627 0.57667
 N1909 N 0.69062 1.06972 0.59554
 N1910 N 0.70884 1.07688 0.60288
 C1911 C 0.79649 0.62337 1.12451
 N1912 N 0.80957 0.63503 1.11238
 N1913 N 0.82700 0.64330 1.12045
 C1914 C 0.83202 0.64032 1.14098
 N1915 N 0.81890 0.62860 1.15306
 N1916 N 0.80151 0.62026 1.14498
 C1917 C 0.77706 0.61457 1.11576
 N1918 N 0.76477 0.60171 1.12751
 N1919 N 0.74695 0.59401 1.11973
 C1920 C 0.74071 0.59895 1.09996
 N1921 N 0.75301 0.61180 1.08820
 N1922 N 0.77088 0.61944 1.09595
 C1923 C 0.72083 0.59079 1.09161
 N1924 N 0.71346 0.59731 1.07271
 N1925 N 0.69519 0.59019 1.06539
 C1926 C 0.68362 0.57623 1.07665
 N1927 N 0.69112 0.56967 1.09552
 N1928 N 0.70933 0.57684 1.10288
 C1929 C 1.29585 0.87650 0.87509
 N1930 N 1.30107 0.87954 0.85466
 N1931 N 1.31854 0.87116 0.84678
 C1932 C 1.33153 0.85946 0.85902
 N1933 N 1.32629 0.85653 0.87951
 N1934 N 1.30878 0.86484 0.88738
 C1935 C 1.27636 0.88538 0.88364
 N1936 N 1.27004 0.88066 0.90344
 N1937 N 1.25214 0.88840 0.91103
 C1938 C 1.23995 0.90120 0.89911
 N1939 N 1.24633 0.90600 0.87934
 N1940 N 1.26419 0.89821 0.87173
 C1941 C 1.22003 0.90943 0.90730
 N1942 N 1.20854 0.92330 0.89592
 N1943 N 1.19028 0.93048 0.90317
 C1944 C 1.18274 0.92402 0.92206
 N1945 N 1.19431 0.91015 0.93344
 N1946 N 1.21260 0.90302 0.92622
 C1947 C 1.29619 0.37678 0.37514
 N1948 N 1.30910 0.36508 0.38740
 N1949 N 1.32659 0.35675 0.37952
 C1950 C 1.33184 0.35971 0.35904
 N1951 N 1.31887 0.37147 0.34682
 N1952 N 1.30142 0.37987 0.35472
 C1953 C 1.27670 0.38567 0.38369
 N1954 N 1.26454 0.39852 0.37181
 N1955 N 1.24667 0.40629 0.37942
 C1956 C 1.24028 0.40145 0.39917
 N1957 N 1.25246 0.38862 0.41107
 N1958 N 1.27036 0.38090 0.40348
 C1959 C 1.22035 0.40965 0.40736
 N1960 N 1.21291 0.40321 0.42626
 N1961 N 1.19460 0.41032 0.43347
 C1962 C 1.18304 0.42420 0.42211
 N1963 N 1.19060 0.43069 0.40324
 N1964 N 1.20887 0.42354 0.39599
 C1965 C 0.79595 0.87662 0.37509
 N1966 N 0.80111 0.87971 0.35465
 N1967 N 0.81859 0.87139 0.34672
 C1968 C 0.83164 0.85972 0.35891
 N1969 N 0.82648 0.85677 0.37941
 N1970 N 0.80896 0.86501 0.38734
 C1971 C 0.77644 0.88540 0.38370
 N1972 N 0.77016 0.88058 0.40349
 N1973 N 0.75223 0.88820 0.41112
 C1974 C 0.73997 0.90098 0.39926
 N1975 N 0.74630 0.90588 0.37950
 N1976 N 0.76419 0.89819 0.37184
 C1977 C 0.72002 0.90911 0.40749
 N1978 N 0.70851 0.92300 0.39616
 N1979 N 0.69025 0.93013 0.40344
 C1980 C 0.68272 0.92361 0.42231
 N1981 N 0.69430 0.90971 0.43364
 N1982 N 0.71261 0.90263 0.42639
 C1983 C 0.79617 0.37699 0.87521
 N1984 N 0.80914 0.36534 0.88746
 N1985 N 0.82663 0.35703 0.87954
 C1986 C 0.83180 0.35995 0.85904
 N1987 N 0.81879 0.37166 0.84683
 N1988 N 0.80134 0.38004 0.85476
 C1989 C 0.77668 0.38582 0.88380
 N1990 N 0.76444 0.39861 0.87193
 N1991 N 0.74657 0.40633 0.87957
 C1992 C 0.74023 0.40148 0.89933
 N1993 N 0.75247 0.38870 0.91122
 N1994 N 0.77039 0.38104 0.90360
 C1995 C 0.72028 0.40962 0.90755
 N1996 N 0.71287 0.40316 0.92646
 N1997 N 0.69455 0.41022 0.93368
 C1998 C 0.68295 0.42407 0.92232
 N1999 N 0.69047 0.43058 0.90344
 N2000 N 0.70875 0.42347 0.89618
 C2001 C 0.70421 0.87668 1.12459
 N2002 N 0.69122 0.86499 1.11239
 N2003 N 0.67373 0.85673 1.12036
 C2004 C 0.66858 0.85973 1.14085
 N2005 N 0.68161 0.87148 1.15300
 N2006 N 0.69906 0.87981 1.14502
 C2007 C 0.72370 0.88547 1.11595
 N2008 N 0.73593 0.89831 1.12777
 N2009 N 0.75380 0.90602 1.12009
 C2010 C 0.76013 0.90110 1.10034
 N2011 N 0.74789 0.88827 1.08851
 N2012 N 0.72997 0.88063 1.09616
 C2013 C 0.78006 0.90924 1.09209
 N2014 N 0.78747 0.90276 1.07318
 N2015 N 0.80577 0.90985 1.06593
 C2016 C 0.81735 0.92375 1.07726
 N2017 N 0.80982 0.93028 1.09612
 N2018 N 0.79156 0.92314 1.10341
 C2019 C 0.70433 0.37658 0.62478
 N2020 N 0.69136 0.36490 0.61256
 N2021 N 0.67388 0.35661 0.62050
 C2022 C 0.66871 0.35958 0.64100
 N2023 N 0.68173 0.37131 0.65317
 N2024 N 0.69917 0.37968 0.64522
 C2025 C 0.72381 0.38543 0.61616
 N2026 N 0.73603 0.39826 0.62800
 N2027 N 0.75388 0.40601 0.62033
 C2028 C 0.76021 0.40115 0.60057
 N2029 N 0.74798 0.38834 0.58871
 N2030 N 0.73008 0.38064 0.59635
 C2031 C 0.78012 0.40934 0.59232
 N2032 N 0.78751 0.40291 0.57339
 N2033 N 0.80580 0.41003 0.56613
 C2034 C 0.81739 0.42391 0.57747
 N2035 N 0.80988 0.43038 0.59637
 N2036 N 0.79163 0.42322 0.60366
 C2037 C 0.20416 0.87669 0.62462
 N2038 N 0.19122 0.86499 0.61238
 N2039 N 0.17372 0.85670 0.62029
 C2040 C 0.16850 0.85970 0.64077
 N2041 N 0.18150 0.87144 0.65296
 N2042 N 0.19895 0.87980 0.64504
 C2043 C 0.22365 0.88554 0.61604
 N2044 N 0.23583 0.89838 0.62791
 N2045 N 0.25370 0.90614 0.62029
 C2046 C 0.26007 0.90129 0.60053
 N2047 N 0.24787 0.88847 0.58864
 N2048 N 0.22997 0.88076 0.59625
 C2049 C 0.28000 0.90948 0.59233
 N2050 N 0.28743 0.90307 0.57342
 N2051 N 0.30573 0.91018 0.56621
 C2052 C 0.31730 0.92404 0.57759
 N2053 N 0.30976 0.93050 0.59647
 N2054 N 0.29149 0.92334 0.60372
 C2055 C 0.20441 0.37639 1.12486
 N2056 N 0.19920 0.37949 1.14528
 N2057 N 0.18173 0.37114 1.15319
 C2058 C 0.16872 0.35943 1.14098
 N2059 N 0.17394 0.35645 1.12050
 N2060 N 0.19146 0.36473 1.11260
 C2061 C 0.22390 0.38525 1.11628
 N2062 N 0.23021 0.38051 1.09648
 N2063 N 0.24811 0.38824 1.08888
 C2064 C 0.26031 0.40104 1.10078
 N2065 N 0.25394 0.40586 1.12054
 N2066 N 0.23609 0.39808 1.12817
 C2067 C 0.28023 0.40926 1.09257
 N2068 N 0.29173 0.42312 1.10395
 N2069 N 0.30998 0.43030 1.09669
 C2070 C 0.31750 0.42386 1.07779
 N2071 N 0.30592 0.41000 1.06641
 N2072 N 0.28763 0.40287 1.07364
 C2073 C 0.70390 1.12351 0.87547
 N2074 N 0.69079 1.13516 0.88757
 N2075 N 0.67331 1.14334 0.87949
 C2076 C 0.66829 1.14027 0.85897
 N2077 N 0.68145 1.12856 0.84692
 N2078 N 0.69888 1.12031 0.85501
 C2079 C 0.72338 1.11481 0.88422
 N2080 N 0.73569 1.10197 0.87249
 N2081 N 0.75355 1.09434 0.88027
 C2082 C 0.75979 1.09935 0.90002
 N2083 N 0.74747 1.11218 0.91177
 N2084 N 0.72956 1.11975 0.90402
 C2085 C 0.77970 1.09125 0.90836
 N2086 N 0.78707 1.09779 0.92726
 N2087 N 0.80535 1.09070 0.93457
 C2088 C 0.81693 1.07675 0.92332
 N2089 N 0.80944 1.07017 0.90446
 N2090 N 0.79121 1.07731 0.89711
 C2091 C 0.70438 0.62460 0.37655
 N2092 N 0.69141 0.61245 0.36480
 N2093 N 0.67394 0.62045 0.35654
 C2094 C 0.66878 0.64093 0.35961
 N2095 N 0.68181 0.65303 0.37141
 N2096 N 0.69923 0.64502 0.37974
 C2097 C 0.72383 0.61593 0.38540
 N2098 N 0.73596 0.62768 0.39840
 N2099 N 0.75378 0.61998 0.40617
 C2100 C 0.76017 0.60027 0.40117
 N2101 N 0.74803 0.58850 0.38818
 N2102 N 0.73016 0.59618 0.38047
 C2103 C 0.78006 0.59200 0.40940
 N2104 N 0.78759 0.57319 0.40279
 N2105 N 0.80586 0.56593 0.40995
 C2106 C 0.81728 0.57716 0.42405
 N2107 N 0.80963 0.59592 0.43072
 N2108 N 0.79141 0.60322 0.42351
 C2109 C 0.20400 1.12364 0.37551
 N2110 N 0.19893 1.12047 0.35506
 N2111 N 0.18151 1.12878 0.34701
 C2112 C 0.16842 1.14054 0.35909
 N2113 N 0.17350 1.14359 0.37959
 N2114 N 0.19096 1.13535 0.38764
 C2115 C 0.22343 1.11481 0.38423
 N2116 N 0.22966 1.11965 0.40403
 N2117 N 0.24752 1.11194 0.41175
 C2118 C 0.25975 1.09905 0.39996
 N2119 N 0.25346 1.09414 0.38020
 N2120 N 0.23565 1.10190 0.37246
 C2121 C 0.27962 1.09081 0.40827
 N2122 N 0.29108 1.07686 0.39696
 N2123 N 0.30929 1.06965 0.40428
 C2124 C 0.31682 1.07615 0.42316
 N2125 N 0.30528 1.09010 0.43446
 N2126 N 0.28702 1.09727 0.42718
 C2127 C 0.20434 0.62442 0.87657
 N2128 N 0.19128 0.61231 0.86487
 N2129 N 0.17382 0.62037 0.85665
 C2130 C 0.16876 0.64088 0.85971
 N2131 N 0.18187 0.65294 0.87146
 N2132 N 0.19928 0.64486 0.87976
 C2133 C 0.22379 0.61567 0.88533
 N2134 N 0.23601 0.62737 0.89829
 N2135 N 0.25385 0.61960 0.90597
 C2136 C 0.26016 0.59988 0.90092
 N2137 N 0.24793 0.58817 0.88797
 N2138 N 0.23005 0.59591 0.88035
 C2139 C 0.28005 0.59154 0.90907
 N2140 N 0.28752 0.57273 0.90241
 N2141 N 0.30579 0.56542 0.90952
 C2142 C 0.31726 0.57658 0.92363
 N2143 N 0.30966 0.59536 0.93034
 N2144 N 0.29145 0.60272 0.92317
 C2145 C 1.12482 1.29581 1.12336
 N2146 N 1.11265 1.30882 1.13504
 N2147 N 1.12064 1.32629 1.14331
 C2148 C 1.14114 1.33142 1.14030
 N2149 N 1.15327 1.31836 1.12855
 N2150 N 1.14527 1.30093 1.12022
 C2151 C 1.11615 1.27634 1.11456
 N2152 N 1.12794 1.26410 1.10168
 N2153 N 1.12023 1.24626 1.09397
 C2154 C 1.10048 1.23994 1.09892
 N2155 N 1.08868 1.25219 1.11177
 N2156 N 1.09636 1.27008 1.11942
 C2157 C 1.09219 1.22003 1.09076
 N2158 N 1.07330 1.21262 1.09728
 N2159 N 1.06602 1.19434 1.09018
 C2160 C 1.07730 1.18278 1.07622
 N2161 N 1.09615 1.19031 1.06966
 N2162 N 1.10347 1.20855 1.07680
 C2163 C 1.12490 0.79586 0.62331
 N2164 N 1.14532 0.80105 0.62019
 N2165 N 1.15324 0.81854 0.62849
 C2166 C 1.14104 0.83158 0.64016
 N2167 N 1.12055 0.82639 0.64315
 N2168 N 1.11265 0.80886 0.63493
 C2169 C 1.11632 0.77632 0.61456
 N2170 N 1.09655 0.77001 0.61940
 N2171 N 1.08895 0.75206 0.61180
 C2172 C 1.10082 0.73981 0.59901
 N2173 N 1.12056 0.74619 0.59409
 N2174 N 1.12819 0.76409 0.60175
 C2175 C 1.09263 0.71985 0.59090
 N2176 N 1.10397 0.70835 0.57701
 N2177 N 1.09672 0.69007 0.56991
 C2178 C 1.07788 0.68250 0.57646
 N2179 N 1.06654 0.69407 0.59036
 N2180 N 1.07375 0.71240 0.59741
 C2181 C 0.62493 1.29593 0.62329
 N2182 N 0.64538 1.30105 0.62022
 N2183 N 0.65336 1.31846 0.62860
 C2184 C 0.64120 1.33150 0.64034
 N2185 N 0.62069 1.32638 0.64328
 N2186 N 0.61272 1.30892 0.63497
 C2187 C 0.61628 1.27648 0.61444
 N2188 N 0.59646 1.27022 0.61923
 N2189 N 0.58879 1.25235 0.61153
 C2190 C 0.60063 1.24012 0.59869
 N2191 N 0.62040 1.24642 0.59382
 N2192 N 0.62810 1.26425 0.60158
 C2193 C 0.59235 1.22022 0.59048
 N2194 N 0.60367 1.20873 0.57656
 N2195 N 0.59635 1.19050 0.56938
 C2196 C 0.57747 1.18299 0.57589
 N2197 N 0.56617 1.19455 0.58982
 N2198 N 0.57344 1.21282 0.59695
 C2199 C 0.62496 0.79594 1.12335
 N2200 N 0.64540 0.80110 1.12027
 N2201 N 0.65334 0.81856 1.12861
 C2202 C 0.64114 0.83161 1.14029
 N2203 N 0.62064 0.82645 1.14324
 N2204 N 0.61272 0.80894 1.13497
 C2205 C 0.61637 0.77645 1.11453
 N2206 N 0.59657 0.77015 1.11933
 N2207 N 0.58896 0.75224 1.11166
 C2208 C 0.60083 0.74001 1.09885
 N2209 N 0.62059 0.74637 1.09398
 N2210 N 0.62823 0.76423 1.10171
 C2211 C 0.59261 0.72008 1.09068
 N2212 N 0.60396 0.70860 1.07678
 N2213 N 0.59670 0.69034 1.06963
 C2214 C 0.57784 0.68279 1.07615
 N2215 N 0.56650 0.69434 1.09006
 N2216 N 0.57372 0.71265 1.09716
 C2217 C 0.87548 1.29629 0.87692
 N2218 N 0.85503 1.30144 0.87996
 N2219 N 0.84708 1.31885 0.87152
 C2220 C 0.85926 1.33185 0.85978
 N2221 N 0.87977 1.32669 0.85687
 N2222 N 0.88771 1.30924 0.86523
 C2223 C 0.88410 1.27685 0.88583
 N2224 N 0.90390 1.27057 0.88107
 N2225 N 0.91154 1.25269 0.88881
 C2226 C 0.89967 1.24049 0.90165
 N2227 N 0.87990 1.24683 0.90649
 N2228 N 0.87224 1.26467 0.89869
 C2229 C 0.90791 1.22058 0.90987
 N2230 N 0.89656 1.20911 0.92378
 N2231 N 0.90383 1.19086 0.93095
 C2232 C 0.92270 1.18331 0.92444
 N2233 N 0.93404 1.19486 0.91053
 N2234 N 0.92681 1.21316 0.90341
 C2235 C 0.87555 0.79624 0.37683
 N2236 N 0.88774 0.80922 0.36513
 N2237 N 0.87973 0.82664 0.35674
 C2238 C 0.85920 0.83171 0.35964
 N2239 N 0.84706 0.81867 0.37140
 N2240 N 0.85508 0.80131 0.37985
 C2241 C 0.88424 0.77684 0.38578
 N2242 N 0.87244 0.76464 0.39866
 N2243 N 0.88017 0.74686 0.40651
 C2244 C 0.89996 0.74058 0.40169
 N2245 N 0.91178 0.75280 0.38882
 N2246 N 0.90408 0.77062 0.38104
 C2247 C 0.90827 0.72073 0.40996
 N2248 N 0.92719 0.71335 0.40352
 N2249 N 0.93448 0.69509 0.41069
 C2250 C 0.92318 0.68354 0.42463
 N2251 N 0.90429 0.69104 0.43111
 N2252 N 0.89696 0.70925 0.42390
 C2253 C 0.37542 1.29594 0.37680
 N2254 N 0.35498 1.30111 0.37983
 N2255 N 0.34706 1.31856 0.37145
 C2256 C 0.35928 1.33159 0.35976
 N2257 N 0.37979 1.32641 0.35686
 N2258 N 0.38769 1.30892 0.36517
 C2259 C 0.38400 1.27645 0.38564
 N2260 N 0.40381 1.27017 0.38089
 N2261 N 0.41142 1.25226 0.38857
 C2262 C 0.39952 1.24002 0.40135
 N2263 N 0.37975 1.24636 0.40618
 N2264 N 0.37212 1.26423 0.39843
 C2265 C 0.40774 1.22008 0.40952
 N2266 N 0.39637 1.20857 0.42337
 N2267 N 0.40364 1.19030 0.43052
 C2268 C 0.42253 1.18278 0.42403
 N2269 N 0.43389 1.19437 0.41017
 N2270 N 0.42666 1.21268 0.40308
 C2271 C 0.37541 0.79590 0.87692
 N2272 N 0.35496 0.80102 0.88000
 N2273 N 0.34696 0.81842 0.87158
 C2274 C 0.35909 0.83143 0.85981
 N2275 N 0.37960 0.82631 0.85685
 N2276 N 0.38759 0.80887 0.86520
 C2277 C 0.38408 0.77647 0.88581
 N2278 N 0.40389 0.77022 0.88100
 N2279 N 0.41158 0.75236 0.88872
 C2280 C 0.39977 0.74014 0.90159
 N2281 N 0.38000 0.74644 0.90648
 N2282 N 0.37228 0.76426 0.89869
 C2283 C 0.40807 0.72025 0.90980
 N2284 N 0.39678 0.70876 0.92375
 N2285 N 0.40411 0.69054 0.93092
 C2286 C 0.42298 0.68302 0.92438
 N2287 N 0.43426 0.69458 0.91043
 N2288 N 0.42697 0.71285 0.90331
 C2289 C 1.12401 0.70422 0.87544
 N2290 N 1.12078 0.69905 0.85503
 N2291 N 1.12906 0.68158 0.84704
 C2292 C 1.14082 0.66853 0.85916
 N2293 N 1.14392 0.67371 0.87963
 N2294 N 1.13572 0.69123 0.88761
 C2295 C 1.11525 0.72372 0.88409
 N2296 N 1.12022 0.73007 0.90382
 N2297 N 1.11258 0.74798 0.91148
 C2298 C 1.09961 0.76014 0.89971
 N2299 N 1.09456 0.75373 0.88002
 N2300 N 1.10227 0.73587 0.87233
 C2301 C 1.09143 0.78006 0.90797
 N2302 N 1.07732 0.79141 0.89675
 N2303 N 1.07013 0.80964 0.90404
 C2304 C 1.07682 0.81730 0.92279
 N2305 N 1.09094 0.80588 0.93400
 N2306 N 1.09808 0.78760 0.92676
 C2307 C 1.12449 0.20427 0.37616
 N2308 N 1.11237 0.19123 0.36446
 N2309 N 1.12039 0.17371 0.35631
 C2310 C 1.14087 0.16857 0.35947
 N2311 N 1.15294 0.18166 0.37123
 N2312 N 1.14490 0.19914 0.37944
 C2313 C 1.11580 0.22378 0.38485
 N2314 N 1.12755 0.23604 0.39773
 N2315 N 1.11984 0.25391 0.40536
 C2316 C 1.10011 0.26025 0.40033
 N2317 N 1.08834 0.24799 0.38746
 N2318 N 1.09604 0.23006 0.37988
 C2319 C 1.09183 0.28018 0.40845
 N2320 N 1.07295 0.28761 0.40193
 N2321 N 1.06569 0.30590 0.40904
 C2322 C 1.07698 0.31744 0.42300
 N2323 N 1.09582 0.30988 0.42956
 N2324 N 1.10312 0.29164 0.42240
 C2325 C 0.62385 0.70405 0.37554
 N2326 N 0.63552 0.69100 0.38769
 N2327 N 0.64375 0.67352 0.37966
 C2328 C 0.64072 0.66844 0.35914
 N2329 N 0.62899 0.68154 0.34705
 N2330 N 0.62069 0.69897 0.35509
 C2331 C 0.61507 0.72351 0.38425
 N2332 N 0.60213 0.73572 0.37251
 N2333 N 0.59443 0.75356 0.38024
 C2334 C 0.59945 0.75989 0.39996
 N2335 N 0.61238 0.74768 0.41171
 N2336 N 0.62002 0.72979 0.40401
 C2337 C 0.59128 0.77979 0.40826
 N2338 N 0.59792 0.78730 0.42707
 N2339 N 0.59079 0.80557 0.43435
 C2340 C 0.57669 0.81703 0.42314
 N2341 N 0.57001 0.80940 0.40437
 N2342 N 0.57719 0.79118 0.39705
 C2343 C 0.62446 0.20398 0.87617
 N2344 N 0.64491 0.19888 0.87932
 N2345 N 0.65292 0.18143 0.87103
 C2346 C 0.64080 0.16833 0.85933
 N2347 N 0.62029 0.17344 0.85630
 N2348 N 0.61229 0.19094 0.86452
 C2349 C 0.61580 0.22345 0.88497
 N2350 N 0.59599 0.22969 0.88016
 N2351 N 0.58831 0.24758 0.88783
 C2352 C 0.60014 0.25983 0.90066
 N2353 N 0.61991 0.25353 0.90554
 N2354 N 0.62761 0.23569 0.89781
 C2355 C 0.59188 0.27973 0.90886
 N2356 N 0.60323 0.29122 0.92274
 N2357 N 0.59594 0.30946 0.92993
 C2358 C 0.57704 0.31698 0.92347
 N2359 N 0.56570 0.30541 0.90958
 N2360 N 0.57295 0.28713 0.90244
 C2361 C 0.87577 0.70400 1.12348
 N2362 N 0.88795 0.69102 1.13520
 N2363 N 0.87996 0.67356 1.14351
 C2364 C 0.85946 0.66844 1.14051
 N2365 N 0.84733 0.68147 1.12875
 N2366 N 0.85533 0.69888 1.12037
 C2367 C 0.88443 0.72344 1.11460
 N2368 N 0.87262 0.73564 1.10172
 N2369 N 0.88031 0.75345 1.09392
 C2370 C 0.90008 0.75977 1.09878
 N2371 N 0.91192 0.74756 1.11164
 N2372 N 0.90424 0.72970 1.11938
 C2373 C 0.90835 0.77965 1.09054
 N2374 N 0.92727 0.78705 1.09697
 N2375 N 0.93453 0.80533 1.08981
 C2376 C 0.92319 0.81689 1.07591
 N2377 N 0.90430 0.80936 1.06944
 N2378 N 0.89701 0.79113 1.07664
 C2379 C 0.87543 0.20396 0.62336
 N2380 N 0.88760 0.19095 0.63505
 N2381 N 0.87960 0.17349 0.64334
 C2382 C 0.85909 0.16838 0.64035
 N2383 N 0.84697 0.18145 0.62861
 N2384 N 0.85498 0.19886 0.62025
 C2385 C 0.88411 0.22339 0.61449
 N2386 N 0.87230 0.23563 0.60164
 N2387 N 0.88001 0.25344 0.59386
 C2388 C 0.89979 0.25972 0.59870
 N2389 N 0.91162 0.24748 0.61154
 N2390 N 0.90393 0.22962 0.61926
 C2391 C 0.90808 0.27961 0.59047
 N2392 N 0.92703 0.28697 0.59687
 N2393 N 0.93430 0.30523 0.58972
 C2394 C 0.92297 0.31682 0.57585
 N2395 N 0.90405 0.30934 0.56940
 N2396 N 0.89674 0.29112 0.57659
 C2397 C 0.37561 0.70399 0.62350
 N2398 N 0.38779 0.69102 0.63523
 N2399 N 0.37983 0.67353 0.64349
 C2400 C 0.35935 0.66834 0.64043
 N2401 N 0.34722 0.68135 0.62864
 N2402 N 0.35519 0.69880 0.62031
 C2403 C 0.38424 0.72347 0.61469
 N2404 N 0.37243 0.73567 0.60181
 N2405 N 0.38011 0.75353 0.59408
 C2406 C 0.39985 0.75988 0.59900
 N2407 N 0.41168 0.74767 0.61187
 N2408 N 0.40402 0.72976 0.61954
 C2409 C 0.40810 0.77980 0.59083
 N2410 N 0.42700 0.78721 0.59730
 N2411 N 0.43425 0.80551 0.59018
 C2412 C 0.42293 0.81707 0.57627
 N2413 N 0.40407 0.80953 0.56975
 N2414 N 0.39677 0.79129 0.57691
 C2415 C 0.37623 0.20418 1.12436
 N2416 N 0.37950 0.19908 1.14478
 N2417 N 0.37128 0.18162 1.15284
 C2418 C 0.35953 0.16850 1.14079
 N2419 N 0.35638 0.17361 1.12030
 N2420 N 0.36453 0.19112 1.11225
 C2421 C 0.38495 0.22366 1.11564
 N2422 N 0.37992 0.22997 1.09591
 N2423 N 0.38754 0.24787 1.08819
 C2424 C 0.40053 0.26006 1.09991
 N2425 N 0.40563 0.25369 1.11960
 N2426 N 0.39795 0.23584 1.12734
 C2427 C 0.40869 0.27996 1.09160
 N2428 N 0.42285 0.29130 1.10277
 N2429 N 0.43004 0.30952 1.09544
 C2430 C 0.42330 0.31718 1.07670
 N2431 N 0.40913 0.30577 1.06554
 N2432 N 0.40199 0.28750 1.07283
 C2433 C 1.12322 1.12487 0.70398
 N2434 N 1.12015 1.14530 0.69878
 N2435 N 1.12859 1.15323 0.68136
 C2436 C 1.14038 1.14104 0.66840
 N2437 N 1.14332 1.12055 0.67361
 N2438 N 1.13496 1.11263 0.69107
 C2439 C 1.11430 1.11628 0.72343
 N2440 N 1.11905 1.09647 0.72973
 N2441 N 1.11130 1.08884 0.74761
 C2442 C 1.09845 1.10072 0.75979
 N2443 N 1.09363 1.12048 0.75344
 N2444 N 1.10144 1.12814 0.73561
 C2445 C 1.09022 1.09248 0.77970
 N2446 N 1.07633 1.10383 0.79120
 N2447 N 1.06915 1.09654 0.80944
 C2448 C 1.07563 1.07765 0.81696
 N2449 N 1.08951 1.06631 0.80538
 N2450 N 1.09664 1.07355 0.78710
 C2451 C 1.12344 0.62483 0.20392
 N2452 N 1.12041 0.64527 0.19873
 N2453 N 1.12885 0.65319 0.18131
 C2454 C 1.14058 0.64098 0.16833
 N2455 N 1.14349 0.62048 0.17352
 N2456 N 1.13513 0.61257 0.19099
 C2457 C 1.11451 0.61625 0.22337
 N2458 N 1.11921 0.59643 0.22966
 N2459 N 1.11145 0.58881 0.24753
 C2460 C 1.09865 0.60072 0.25973
 N2461 N 1.09387 0.62050 0.25340
 N2462 N 1.10169 0.62814 0.23556
 C2463 C 1.09041 0.59250 0.27965
 N2464 N 1.07658 0.60390 0.29117
 N2465 N 1.06941 0.59663 0.30942
 C2466 C 1.07584 0.57772 0.31693
 N2467 N 1.08967 0.56633 0.30533
 N2468 N 1.09679 0.57356 0.28703
 C2469 C 0.62331 1.12470 0.20393
 N2470 N 0.63497 1.11246 0.19094
 N2471 N 0.64327 1.12040 0.17346
 C2472 C 0.64032 1.14090 0.16830
 N2473 N 0.62860 1.15309 0.18133
 N2474 N 0.62023 1.14514 0.19877
 C2475 C 0.61449 1.11608 0.22341
 N2476 N 0.60167 1.12794 0.23564
 N2477 N 0.59394 1.12028 0.25351
 C2478 C 0.59881 1.10051 0.25984
 N2479 N 0.61161 1.08865 0.24760
 N2480 N 0.61928 1.09628 0.22969
 C2481 C 0.59065 1.09227 0.27977
 N2482 N 0.59710 1.07336 0.28717
 N2483 N 0.59001 1.06612 0.30547
 C2484 C 0.57613 1.07746 0.31706
 N2485 N 0.56963 1.09634 0.30954
 N2486 N 0.57677 1.10362 0.29128
 C2487 C 0.62344 0.62456 0.70389
 N2488 N 0.63516 0.61236 0.69094
 N2489 N 0.64354 0.62034 0.67350
 C2490 C 0.64061 0.64085 0.66838
 N2491 N 0.62884 0.65300 0.68139
 N2492 N 0.62039 0.64502 0.69877
 C2493 C 0.61449 0.61591 0.72330
 N2494 N 0.60162 0.62774 0.73549
 N2495 N 0.59377 0.62004 0.75329
 C2496 C 0.59857 0.60025 0.75959
 N2497 N 0.61143 0.58840 0.74739
 N2498 N 0.61922 0.59608 0.72955
 C2499 C 0.59031 0.59198 0.77946
 N2500 N 0.59670 0.57304 0.78684
 N2501 N 0.58955 0.56578 0.80511
 C2502 C 0.57566 0.57712 0.81668
 N2503 N 0.56921 0.59602 0.80918
 N2504 N 0.57641 0.60333 0.79095
 C2505 C 0.87549 0.87652 0.70419
 N2506 N 0.88767 0.86486 0.69116
 N2507 N 0.87968 0.85665 0.67366
 C2508 C 0.85918 0.85969 0.66854
 N2509 N 0.84706 0.87141 0.68162
 N2510 N 0.85506 0.87969 0.69907
 C2511 C 0.88415 0.88528 0.72368
 N2512 N 0.87238 0.89820 0.73589
 N2513 N 0.88008 0.90588 0.75375
 C2514 C 0.89979 0.90087 0.76011
 N2515 N 0.91158 0.88797 0.74790
 N2516 N 0.90391 0.88035 0.72999
 C2517 C 0.90806 0.90902 0.78003
 N2518 N 0.92688 0.90241 0.78752
 N2519 N 0.93414 0.90952 0.80581
 C2520 C 0.92290 0.92357 0.81729
 N2521 N 0.90411 0.93023 0.80967
 N2522 N 0.89682 0.92307 0.79143
 C2523 C 0.87563 0.37659 0.20421
 N2524 N 0.85521 0.37981 0.19907
 N2525 N 0.84719 0.37147 0.18165
 C2526 C 0.85928 0.35965 0.16863
 N2527 N 0.87976 0.35656 0.17378
 N2528 N 0.88777 0.36482 0.19125
 C2529 C 0.88432 0.38543 0.22366
 N2530 N 0.90407 0.38049 0.22998
 N2531 N 0.91176 0.38819 0.24785
 C2532 C 0.90001 0.40119 0.26000
 N2533 N 0.88030 0.40620 0.25362
 N2534 N 0.87258 0.39844 0.23580
 C2535 C 0.90830 0.40940 0.27988
 N2536 N 0.89708 0.42351 0.29125
 N2537 N 0.90439 0.43071 0.30947
 C2538 C 0.92317 0.42404 0.31710
 N2539 N 0.93438 0.40993 0.30566
 N2540 N 0.92711 0.40278 0.28739
 C2541 C 0.37651 0.87537 0.20405
 N2542 N 0.36483 0.88750 0.19100
 N2543 N 0.35664 0.87947 0.17351
 C2544 C 0.35973 0.85897 0.16841
 N2545 N 0.37147 0.84689 0.18151
 N2546 N 0.37973 0.85494 0.19896
 C2547 C 0.38526 0.88408 0.22353
 N2548 N 0.39814 0.87233 0.23578
 N2549 N 0.40583 0.88006 0.25363
 C2550 C 0.40085 0.89981 0.25992
 N2551 N 0.38798 0.91158 0.24767
 N2552 N 0.38035 0.90387 0.22977
 C2553 C 0.40900 0.90811 0.27983
 N2554 N 0.40249 0.92700 0.28723
 N2555 N 0.40961 0.93429 0.30551
 C2556 C 0.42357 0.92302 0.31706
 N2557 N 0.43013 0.90416 0.30953
 N2558 N 0.42296 0.89684 0.29130
 C2559 C 0.37662 0.37544 0.70396
 N2560 N 0.36494 0.38760 0.69093
 N2561 N 0.35677 0.37961 0.67341
 C2562 C 0.35987 0.35912 0.66826
 N2563 N 0.37161 0.34702 0.68134
 N2564 N 0.37985 0.35502 0.69881
 C2565 C 0.38534 0.38410 0.72347
 N2566 N 0.39820 0.37231 0.73571
 N2567 N 0.40585 0.38000 0.75359
 C2568 C 0.40085 0.39973 0.75994
 N2569 N 0.38800 0.41153 0.74769
 N2570 N 0.38041 0.40386 0.72976
 C2571 C 0.40897 0.40798 0.77988
 N2572 N 0.40244 0.42686 0.78732
 N2573 N 0.40953 0.43410 0.80562
 C2574 C 0.42347 0.42280 0.81717
 N2575 N 0.43004 0.40396 0.80960
 N2576 N 0.42291 0.39668 0.79135
 C2577 C 1.12362 0.87530 1.29596
 N2578 N 1.12047 0.85488 1.30116
 N2579 N 1.12878 0.84694 1.31863
 C2580 C 1.14051 0.85911 1.33165
 N2581 N 1.14354 0.87959 1.32645
 N2582 N 1.13530 0.88752 1.30893
 C2583 C 1.11484 0.88389 1.27645
 N2584 N 1.11970 0.90367 1.27013
 N2585 N 1.11206 0.91129 1.25220
 C2586 C 1.09923 0.89943 1.23998
 N2587 N 1.09430 0.87970 1.24635
 N2588 N 1.10200 0.87205 1.26423
 C2589 C 1.09110 0.90765 1.22003
 N2590 N 1.07719 0.89632 1.20854
 N2591 N 1.07006 0.90358 1.19028
 C2592 C 1.07660 0.92244 1.18272
 N2593 N 1.09051 0.93376 1.19428
 N2594 N 1.09759 0.92654 1.21259
 C2595 C 1.12359 0.37510 0.79581
 N2596 N 1.12044 0.35468 0.80100
 N2597 N 1.12874 0.34674 0.81847
 C2598 C 1.14046 0.35891 0.83151
 N2599 N 1.14348 0.37940 0.82631
 N2600 N 1.13525 0.38732 0.80879
 C2601 C 1.11480 0.38370 0.77630
 N2602 N 1.11962 0.40348 0.77000
 N2603 N 1.11198 0.41111 0.75207
 C2604 C 1.09916 0.39924 0.73985
 N2605 N 1.09426 0.37950 0.74620
 N2606 N 1.10197 0.37185 0.76408
 C2607 C 1.09101 0.40747 0.71991
 N2608 N 1.07713 0.39612 0.70841
 N2609 N 1.06999 0.40339 0.69014
 C2610 C 1.07650 0.42226 0.68260
 N2611 N 1.09039 0.43360 0.69418
 N2612 N 1.09747 0.42637 0.71248
 C2613 C 0.62463 0.87612 0.79563
 N2614 N 0.61251 0.86443 0.80868
 N2615 N 0.62053 0.85631 0.82621
 C2616 C 0.64100 0.85948 0.83135
 N2617 N 0.65308 0.87122 0.81824
 N2618 N 0.64505 0.87941 0.80076
 C2619 C 0.61595 0.88480 0.77611
 N2620 N 0.62767 0.89775 0.76390
 N2621 N 0.61996 0.90538 0.74602
 C2622 C 0.60027 0.90027 0.73965
 N2623 N 0.58853 0.88733 0.75186
 N2624 N 0.59622 0.87976 0.76979
 C2625 C 0.59199 0.90839 0.71971
 N2626 N 0.57320 0.90171 0.71220
 N2627 N 0.56593 0.90881 0.69391
 C2628 C 0.57712 0.92292 0.68245
 N2629 N 0.59588 0.92963 0.69009
 N2630 N 0.60319 0.92248 0.70833
 C2631 C 0.62394 0.37542 1.29558
 N2632 N 0.62079 0.35498 1.30072
 N2633 N 0.62904 0.34701 1.31820
 C2634 C 0.64071 0.35916 1.33129
 N2635 N 0.64373 0.37965 1.32616
 N2636 N 0.63556 0.38762 1.30863
 C2637 C 0.61522 0.38405 1.27606
 N2638 N 0.62009 0.40384 1.26979
 N2639 N 0.61250 0.41149 1.25185
 C2640 C 0.59969 0.39966 1.23959
 N2641 N 0.59475 0.37992 1.24592
 N2642 N 0.60240 0.37224 1.26380
 C2643 C 0.59157 0.40792 1.21965
 N2644 N 0.57765 0.39660 1.20816
 N2645 N 0.57051 0.40389 1.18991
 C2646 C 0.57706 0.42275 1.18237
 N2647 N 0.59098 0.43406 1.19393
 N2648 N 0.59807 0.42681 1.21223
 C2649 C 0.87596 1.12387 1.29598
 N2650 N 0.88800 1.13563 1.30905
 N2651 N 0.87986 1.14382 1.32650
 C2652 C 0.85936 1.14066 1.33153
 N2653 N 0.84738 1.12885 1.31840
 N2654 N 0.85552 1.12059 1.30100
 C2655 C 0.88477 1.11510 1.27656
 N2656 N 0.87313 1.10206 1.26437
 N2657 N 0.88094 1.09433 1.24658
 C2658 C 0.90065 1.09943 1.24026
 N2659 N 0.91231 1.11246 1.25246
 N2660 N 0.90453 1.12012 1.27031
 C2661 C 0.90902 1.09121 1.22041
 N2662 N 0.92782 1.09787 1.21291
 N2663 N 0.93514 1.09070 1.19466
 C2664 C 0.92398 1.07652 1.18325
 N2665 N 0.90522 1.06983 1.19088
 N2666 N 0.89786 1.07705 1.20907
 C2667 C 0.87701 0.62441 0.79622
 N2668 N 0.86530 0.61226 0.80923
 N2669 N 0.85696 0.62029 0.82665
 C2670 C 0.85992 0.64081 0.83172
 N2671 N 0.87168 0.65292 0.81866
 N2672 N 0.88009 0.64488 0.80128
 C2673 C 0.88590 0.61571 0.77681
 N2674 N 0.89879 0.62749 0.76459
 N2675 N 0.90658 0.61975 0.74679
 C2676 C 0.90171 0.59998 0.74051
 N2677 N 0.88883 0.58818 0.75274
 N2678 N 0.88110 0.59589 0.77059
 C2679 C 0.90994 0.59167 0.72064
 N2680 N 0.90348 0.57276 0.71324
 N2681 N 0.91063 0.56548 0.69498
 C2682 C 0.92457 0.57677 0.68343
 N2683 N 0.93109 0.59565 0.69095
 N2684 N 0.92389 0.60297 0.70917
 C2685 C 0.37678 1.12463 0.79606
 N2686 N 0.36506 1.11241 0.80901
 N2687 N 0.35671 1.12037 0.82646
 C2688 C 0.35966 1.14087 0.83162
 N2689 N 0.37142 1.15304 0.81861
 N2690 N 0.37985 1.14507 0.80121
 C2691 C 0.38570 1.11599 0.77663
 N2692 N 0.39857 1.12783 0.76444
 N2693 N 0.40640 1.12015 0.74663
 C2694 C 0.40159 1.10037 0.74031
 N2695 N 0.38874 1.08851 0.75251
 N2696 N 0.38097 1.09617 0.77037
 C2697 C 0.40984 1.09211 0.72043
 N2698 N 0.40345 1.07317 0.71305
 N2699 N 0.41060 1.06591 0.69478
 C2700 C 0.42448 1.07726 0.68320
 N2701 N 0.43093 1.09616 0.69070
 N2702 N 0.42373 1.10346 0.70893
 C2703 C 0.37715 0.62472 1.29616
 N2704 N 0.38024 0.64517 1.30128
 N2705 N 0.37184 0.65317 1.31868
 C2706 C 0.36008 0.64104 1.33171
 N2707 N 0.35711 0.62053 1.32659
 N2708 N 0.36544 0.61254 1.30914
 C2709 C 0.38602 0.61606 1.27673
 N2710 N 0.38123 0.59625 1.27048
 N2711 N 0.38894 0.58856 1.25261
 C2712 C 0.40180 0.60039 1.24038
 N2713 N 0.40667 0.62016 1.24669
 N2714 N 0.39890 0.62786 1.26451
 C2715 C 0.41001 0.59210 1.22049
 N2716 N 0.42393 0.60341 1.20900
 N2717 N 0.43111 0.59610 1.19077
 C2718 C 0.42460 0.57721 1.18326
 N2719 N 0.41068 0.56591 1.19483
 N2720 N 0.40355 0.57319 1.21310
 C2721 C 1.12461 1.29591 0.87665
 N2722 N 1.11243 1.30892 0.86496
 N2723 N 1.12043 1.32638 0.85666
 C2724 C 1.14094 1.33148 0.85965
 N2725 N 1.15307 1.31842 0.87139
 N2726 N 1.14506 1.30101 0.87976
 C2727 C 1.11593 1.27647 0.88550
 N2728 N 1.12774 1.26423 0.89835
 N2729 N 1.12003 1.24640 0.90611
 C2730 C 1.10025 1.24011 0.90124
 N2731 N 1.08843 1.25236 0.88841
 N2732 N 1.09612 1.27023 0.88070
 C2733 C 1.09197 1.22022 0.90944
 N2734 N 1.07304 1.21285 0.90301
 N2735 N 1.06576 1.19458 0.91014
 C2736 C 1.07708 1.18298 0.92402
 N2737 N 1.09598 1.19048 0.93050
 N2738 N 1.10330 1.20871 0.92333
 C2739 C 1.12487 0.79606 0.37683
 N2740 N 1.11264 0.80903 0.36514
 N2741 N 1.12059 0.82650 0.35682
 C2742 C 1.14109 0.83165 0.35978
 N2743 N 1.15326 0.81863 0.37151
 N2744 N 1.14531 0.80121 0.37990
 C2745 C 1.11625 0.77661 0.38571
 N2746 N 1.12810 0.76440 0.39855
 N2747 N 1.12044 0.74657 0.40634
 C2748 C 1.10066 0.74025 0.40153
 N2749 N 1.08879 0.75246 0.38871
 N2750 N 1.09643 0.77034 0.38097
 C2751 C 1.09243 0.72034 0.40975
 N2752 N 1.07349 0.71295 0.40336
 N2753 N 1.06625 0.69466 0.41048
 C2754 C 1.07762 0.68307 0.42434
 N2755 N 1.09652 0.69059 0.43078
 N2756 N 1.10380 0.70883 0.42361
 C2757 C 0.62474 1.29610 0.37632
 N2758 N 0.61261 1.30910 0.36458
 N2759 N 0.62064 1.32657 0.35632
 C2760 C 0.64113 1.33168 0.35940
 N2761 N 0.65321 1.31863 0.37120
 N2762 N 0.64517 1.30121 0.37952
 C2763 C 0.61603 1.27665 0.38514
 N2764 N 0.62778 1.26443 0.39804
 N2765 N 0.62005 1.24660 0.40578
 C2766 C 0.60029 1.24030 0.40083
 N2767 N 0.58852 1.25253 0.38794
 N2768 N 0.59624 1.27041 0.38026
 C2769 C 0.59198 1.22041 0.40902
 N2770 N 0.57308 1.21302 0.40254
 N2771 N 0.56579 1.19475 0.40968
 C2772 C 0.57707 1.18319 0.42363
 N2773 N 0.59594 1.19071 0.43016
 N2774 N 0.60327 1.20893 0.42298
 C2775 C 0.62391 0.79591 0.87550
 N2776 N 0.63559 0.80899 0.88759
 N2777 N 0.64374 0.82649 0.87952
 C2778 C 0.64060 0.83156 0.85902
 N2779 N 0.62886 0.81842 0.84698
 N2780 N 0.62064 0.80097 0.85506
 C2781 C 0.61521 0.77642 0.88424
 N2782 N 0.60223 0.76420 0.87257
 N2783 N 0.59459 0.74635 0.88033
 C2784 C 0.59971 0.74002 0.90003
 N2785 N 0.61267 0.75224 0.91173
 N2786 N 0.62026 0.77015 0.90399
 C2787 C 0.59158 0.72011 0.90836
 N2788 N 0.59829 0.71260 0.92714
 N2789 N 0.59117 0.69432 0.93444
 C2790 C 0.57702 0.68288 0.92329
 N2791 N 0.57028 0.69052 0.90455
 N2792 N 0.57744 0.70874 0.89721
 C2793 C 0.87651 1.29589 1.12479
 N2794 N 0.86482 1.30892 1.11263
 N2795 N 0.85665 1.32644 1.12062
 C2796 C 0.85974 1.33158 1.14111
 N2797 N 0.87148 1.31851 1.15322
 N2798 N 0.87973 1.30103 1.14521
 C2799 C 0.88522 1.27638 1.11613
 N2800 N 0.89815 1.26417 1.12787
 N2801 N 0.90580 1.24629 1.12017
 C2802 C 0.90073 1.23992 1.10047
 N2803 N 0.88781 1.25213 1.08871
 N2804 N 0.88022 1.27006 1.09639
 C2805 C 0.90884 1.21998 1.09219
 N2806 N 0.90217 1.21248 1.07339
 N2807 N 0.90926 1.19419 1.06612
 C2808 C 0.92334 1.18271 1.07731
 N2809 N 0.93005 1.19033 1.09608
 N2810 N 0.92292 1.20858 1.10339
 C2811 C 0.87659 0.79601 0.62472
 N2812 N 0.87977 0.80116 0.64515
 N2813 N 0.87145 0.81860 0.65314
 C2814 C 0.85969 0.83164 0.64102
 N2815 N 0.85664 0.82649 0.62053
 N2816 N 0.86489 0.80899 0.61255
 C2817 C 0.88542 0.77654 0.61607
 N2818 N 0.88049 0.77020 0.59632
 N2819 N 0.88818 0.75231 0.58866
 C2820 C 0.90114 0.74016 0.60045
 N2821 N 0.90614 0.74655 0.62015
 N2822 N 0.89839 0.76439 0.62784
 C2823 C 0.90935 0.72025 0.59219
 N2824 N 0.92345 0.70890 0.60342
 N2825 N 0.93064 0.69066 0.59613
 C2826 C 0.92398 0.68301 0.57737
 N2827 N 0.90988 0.69444 0.56614
 N2828 N 0.90273 0.71272 0.57339
 C2829 C 0.37572 1.29592 0.62338
 N2830 N 0.38790 1.30894 0.63505
 N2831 N 0.37991 1.32644 0.64327
 C2832 C 0.35941 1.33157 0.64023
 N2833 N 0.34729 1.31849 0.62852
 N2834 N 0.35528 1.30104 0.62023
 C2835 C 0.38437 1.27644 0.61460
 N2836 N 0.37256 1.26421 0.60175
 N2837 N 0.38024 1.24636 0.59403
 C2838 C 0.40000 1.24003 0.59894
 N2839 N 0.41183 1.25227 0.61177
 N2840 N 0.40417 1.27017 0.61943
 C2841 C 0.40825 1.22011 0.59076
 N2842 N 0.42715 1.21269 0.59721
 N2843 N 0.43439 1.19440 0.59009
 C2844 C 0.42305 1.18284 0.57620
 N2845 N 0.40417 1.19038 0.56970
 N2846 N 0.39690 1.20863 0.57687
 C2847 C 0.37571 0.79575 1.12363
 N2848 N 0.38785 0.80881 1.13528
 N2849 N 0.37982 0.82631 1.14348
 C2850 C 0.35931 0.83139 1.14042
 N2851 N 0.34722 0.81827 1.12871
 N2852 N 0.35526 0.80082 1.12045
 C2853 C 0.38441 0.77627 1.11489
 N2854 N 0.37264 0.76399 1.10205
 N2855 N 0.38038 0.74614 1.09436
 C2856 C 0.40014 0.73987 1.09930
 N2857 N 0.41193 0.75215 1.11213
 N2858 N 0.40422 0.77005 1.11975
 C2859 C 0.40844 0.71996 1.09115
 N2860 N 0.42736 0.71259 1.09762
 N2861 N 0.43465 0.69431 1.09051
 C2862 C 0.42336 0.68272 1.07660
 N2863 N 0.40447 0.69022 1.07009
 N2864 N 0.39714 0.70845 1.07725
 C2865 C 0.87553 0.70401 0.87664
 N2866 N 0.88773 0.69099 0.86498
 N2867 N 0.87976 0.67350 0.85673
 C2868 C 0.85926 0.66837 0.85973
 N2869 N 0.84711 0.68142 0.87145
 N2870 N 0.85509 0.69887 0.87977
 C2871 C 0.88417 0.72350 0.88541
 N2872 N 0.87237 0.73574 0.89827
 N2873 N 0.88005 0.75361 0.90595
 C2874 C 0.89979 0.75994 0.90099
 N2875 N 0.91161 0.74770 0.88816
 N2876 N 0.90395 0.72978 0.88053
 C2877 C 0.90805 0.77988 0.90913
 N2878 N 0.92692 0.78732 0.90259
 N2879 N 0.93418 0.80562 0.90967
 C2880 C 0.92289 0.81717 0.92362
 N2881 N 0.90405 0.80961 0.93020
 N2882 N 0.89676 0.79136 0.92307
 C2883 C 0.87608 0.20444 0.37548
 N2884 N 0.86436 0.19138 0.38757
 N2885 N 0.85629 0.17384 0.37954
 C2886 C 0.85954 0.16869 0.35907
 N2887 N 0.87131 0.18180 0.34704
 N2888 N 0.87945 0.19930 0.35508
 C2889 C 0.88472 0.22397 0.38418
 N2890 N 0.89770 0.23618 0.37249
 N2891 N 0.90530 0.25406 0.38022
 C2892 C 0.90014 0.26044 0.39989
 N2893 N 0.88717 0.24823 0.41160
 N2894 N 0.87963 0.23029 0.40390
 C2895 C 0.90825 0.28037 0.40819
 N2896 N 0.90157 0.28789 0.42698
 N2897 N 0.90868 0.30617 0.43425
 C2898 C 0.92281 0.31761 0.42307
 N2899 N 0.92953 0.30997 0.40432
 N2900 N 0.92237 0.29174 0.39700
 C2901 C 0.37561 0.70418 0.37677
 N2902 N 0.35517 0.69902 0.37986
 N2903 N 0.34722 0.68158 0.37150
 C2904 C 0.35940 0.66856 0.35977
 N2905 N 0.37990 0.67372 0.35680
 N2906 N 0.38784 0.69121 0.36510
 C2907 C 0.38422 0.72366 0.38561
 N2908 N 0.40401 0.72996 0.38080
 N2909 N 0.41164 0.74786 0.38848
 C2910 C 0.39978 0.76007 0.40132
 N2911 N 0.38003 0.75372 0.40620
 N2912 N 0.37237 0.73587 0.39845
 C2913 C 0.40801 0.78000 0.40950
 N2914 N 0.39667 0.79147 0.42341
 N2915 N 0.40394 0.80973 0.43057
 C2916 C 0.42280 0.81728 0.42404
 N2917 N 0.43414 0.80573 0.41013
 N2918 N 0.42690 0.78743 0.40302
 C2919 C 0.37523 0.20395 0.87673
 N2920 N 0.35477 0.19883 0.87977
 N2921 N 0.34682 0.18140 0.87140
 C2922 C 0.35900 0.16834 0.85971
 N2923 N 0.37951 0.17347 0.85679
 N2924 N 0.38746 0.19095 0.86509
 C2925 C 0.38385 0.22342 0.88557
 N2926 N 0.40367 0.22967 0.88081
 N2927 N 0.41132 0.24757 0.88850
 C2928 C 0.39945 0.25981 0.90130
 N2929 N 0.37967 0.25350 0.90614
 N2930 N 0.37200 0.23565 0.89839
 C2931 C 0.40770 0.27972 0.90948
 N2932 N 0.39636 0.29123 0.92336
 N2933 N 0.40365 0.30948 0.93052
 C2934 C 0.42253 0.31699 0.92402
 N2935 N 0.43387 0.30541 0.91014
 N2936 N 0.42662 0.28712 0.90303
 C2937 C 1.12499 0.70390 1.12302
 N2938 N 1.14545 0.69878 1.11998
 N2939 N 1.15342 0.68138 1.12841
 C2940 C 1.14124 0.66836 1.14015
 N2941 N 1.12073 0.67349 1.14305
 N2942 N 1.11277 0.69093 1.13470
 C2943 C 1.11635 0.72335 1.11412
 N2944 N 1.09654 0.72960 1.11888
 N2945 N 1.08888 0.74747 1.11116
 C2946 C 1.10073 0.75970 1.09833
 N2947 N 1.12051 0.75339 1.09349
 N2948 N 1.12819 0.73556 1.10128
 C2949 C 1.09246 0.77960 1.09013
 N2950 N 1.10379 0.79110 1.07622
 N2951 N 1.09649 0.80934 1.06906
 C2952 C 1.07760 0.81685 1.07556
 N2953 N 1.06628 0.80527 1.08947
 N2954 N 1.07355 0.78699 1.09658
 C2955 C 1.12488 0.20396 0.62300
 N2956 N 1.14533 0.19881 0.62000
 N2957 N 1.15328 0.18143 0.62848
 C2958 C 1.14109 0.16843 0.64022
 N2959 N 1.12057 0.17358 0.64310
 N2960 N 1.11263 0.19102 0.63469
 C2961 C 1.11626 0.22337 0.61404
 N2962 N 1.09642 0.22963 0.61873
 N2963 N 1.08878 0.24748 0.61094
 C2964 C 1.10066 0.25968 0.59811
 N2965 N 1.12045 0.25337 0.59334
 N2966 N 1.12812 0.23556 0.60119
 C2967 C 1.09241 0.27957 0.58985
 N2968 N 1.10377 0.29107 0.57597
 N2969 N 1.09648 0.30930 0.56878
 C2970 C 1.07757 0.31681 0.57523
 N2971 N 1.06622 0.30523 0.58910
 N2972 N 1.07347 0.28695 0.59625
 C2973 C 0.62495 0.70389 0.62326
 N2974 N 0.61274 0.69086 0.63490
 N2975 N 0.62073 0.67340 0.64320
 C2976 C 0.64125 0.66832 0.64028
 N2977 N 0.65341 0.68139 0.62858
 N2978 N 0.64541 0.69880 0.62021
 C2979 C 0.61628 0.72334 0.61442
 N2980 N 0.62809 0.73560 0.60159
 N2981 N 0.62038 0.75343 0.59385
 C2982 C 0.60060 0.75972 0.59872
 N2983 N 0.58878 0.74746 0.61154
 N2984 N 0.59646 0.72957 0.61922
 C2985 C 0.59231 0.77962 0.59055
 N2986 N 0.57340 0.78701 0.59703
 N2987 N 0.56612 0.80529 0.58992
 C2988 C 0.57741 0.81686 0.57599
 N2989 N 0.59629 0.80935 0.56946
 N2990 N 0.60361 0.79112 0.57662
 C2991 C 0.62469 0.20389 1.12305
 N2992 N 0.64513 0.19873 1.11995
 N2993 N 0.65310 0.18132 1.12836
 C2994 C 0.64095 0.16833 1.14015
 N2995 N 0.62045 0.17349 1.14313
 N2996 N 0.61249 0.19094 1.13479
 C2997 C 0.61605 0.22333 1.11416
 N2998 N 0.59625 0.22962 1.11897
 N2999 N 0.58860 0.24750 1.11125
 C3000 C 0.60043 0.25969 1.09837
 N3001 N 0.62019 0.25334 1.09348
 N3002 N 0.62787 0.23551 1.10127
 C3003 C 0.59218 0.27959 1.09016
 N3004 N 0.60350 0.29106 1.07622
 N3005 N 0.59621 0.30930 1.06905
 C3006 C 0.57736 0.31686 1.07558
 N3007 N 0.56604 0.30532 1.08952
 N3008 N 0.57329 0.28703 1.09664
 C3009 C 1.29590 1.12328 0.87532
 N3010 N 1.30106 1.12016 0.85489
 N3011 N 1.31851 1.12850 0.84693
 C3012 C 1.33153 1.14025 0.85908
 N3013 N 1.32637 1.14324 0.87958
 N3014 N 1.30888 1.13496 0.88753
 C3015 C 1.27641 1.11447 0.88395
 N3016 N 1.27014 1.11929 0.90375
 N3017 N 1.25223 1.11164 0.91140
 C3018 C 1.23999 1.09882 0.89955
 N3019 N 1.24632 1.09393 0.87980
 N3020 N 1.26418 1.10164 0.87212
 C3021 C 1.22006 1.09066 0.90780
 N3022 N 1.20855 1.07679 0.89646
 N3023 N 1.19030 1.06964 0.90374
 C3024 C 1.18277 1.07613 0.92263
 N3025 N 1.19436 1.09001 0.93397
 N3026 N 1.21265 1.09711 0.92672
 C3027 C 1.29628 0.62347 0.37532
 N3028 N 1.30144 0.62040 0.35488
 N3029 N 1.31889 0.62876 0.34694
 C3030 C 1.33192 0.64046 0.35913
 N3031 N 1.32676 0.64341 0.37963
 N3032 N 1.30927 0.63512 0.38756
 C3033 C 1.27680 0.61464 0.38393
 N3034 N 1.27053 0.61938 0.40374
 N3035 N 1.25263 0.61169 0.41137
 C3036 C 1.24038 0.59892 0.39948
 N3037 N 1.24671 0.59410 0.37970
 N3038 N 1.26457 0.60184 0.37205
 C3039 C 1.22046 0.59073 0.40771
 N3040 N 1.20893 0.57690 0.39632
 N3041 N 1.19068 0.56974 0.40359
 C3042 C 1.18318 0.57616 0.42251
 N3043 N 1.19478 0.58999 0.43389
 N3044 N 1.21308 0.59710 0.42666
 C3045 C 0.79597 1.12444 0.37596
 N3046 N 0.80098 1.14489 0.37923
 N3047 N 0.81845 1.15300 0.37108
 C3048 C 0.83166 1.14097 0.35940
 N3049 N 0.82665 1.12046 0.35627
 N3050 N 0.80913 1.11236 0.36435
 C3051 C 0.77647 1.11567 0.38458
 N3052 N 0.77023 1.09592 0.37952
 N3053 N 0.75231 1.08816 0.38703
 C3054 C 0.74001 1.09985 0.39994
 N3055 N 0.74630 1.11956 0.40507
 N3056 N 0.76417 1.12734 0.39750
 C3057 C 0.72010 1.09151 0.40803
 N3058 N 0.70869 1.10268 0.42213
 N3059 N 0.69047 1.09533 0.42928
 C3060 C 0.68287 1.07656 0.42257
 N3061 N 0.69433 1.06539 0.40845
 N3062 N 0.71261 1.07270 0.40134
 C3063 C 0.79599 0.62339 0.87516
 N3064 N 0.80894 0.63506 0.88742
 N3065 N 0.82646 0.64333 0.87953
 C3066 C 0.83169 0.64034 0.85905
 N3067 N 0.81870 0.62862 0.84684
 N3068 N 0.80122 0.62028 0.85474
 C3069 C 0.77649 0.61455 0.88372
 N3070 N 0.76430 0.60172 0.87183
 N3071 N 0.74643 0.59396 0.87945
 C3072 C 0.74005 0.59881 0.89920
 N3073 N 0.75225 0.61162 0.91110
 N3074 N 0.77016 0.61932 0.90351
 C3075 C 0.72012 0.59062 0.90740
 N3076 N 0.71269 0.59704 0.92631
 N3077 N 0.69439 0.58994 0.93353
 C3078 C 0.68281 0.57608 0.92216
 N3079 N 0.69035 0.56960 0.90327
 N3080 N 0.70862 0.57676 0.89602
 C3081 C 1.29613 0.87619 1.12437
 N3082 N 1.30920 0.86451 1.11225
 N3083 N 1.32668 0.85632 1.12030
 C3084 C 1.33175 0.85940 1.14081
 N3085 N 1.31863 0.87113 1.15288
 N3086 N 1.30119 0.87939 1.14481
 C3087 C 1.27666 0.88493 1.11564
 N3088 N 1.26439 0.89780 1.12739
 N3089 N 1.24655 0.90549 1.11964
 C3090 C 1.24028 0.90052 1.09988
 N3091 N 1.25255 0.88766 1.08812
 N3092 N 1.27044 0.88003 1.09584
 C3093 C 1.22038 0.90869 1.09156
 N3094 N 1.21299 0.90220 1.07265
 N3095 N 1.19473 0.90934 1.06536
 C3096 C 1.18317 0.92330 1.07664
 N3097 N 1.19069 0.92982 1.09551
 N3098 N 1.20890 0.92263 1.10285
 C3099 C 1.29629 0.37643 0.62421
 N3100 N 1.30939 0.36480 0.61208
 N3101 N 1.32687 0.35661 0.62012
 C3102 C 1.33191 0.35963 0.64065
 N3103 N 1.31877 0.37132 0.65273
 N3104 N 1.30134 0.37959 0.64467
 C3105 C 1.27682 0.38516 0.61550
 N3106 N 1.26451 0.39798 0.62727
 N3107 N 1.24666 0.40563 0.61953
 C3108 C 1.24040 0.40069 0.59976
 N3109 N 1.25271 0.38788 0.58797
 N3110 N 1.27062 0.38028 0.59569
 C3111 C 1.22049 0.40882 0.59146
 N3112 N 1.21311 0.40235 0.57254
 N3113 N 1.19482 0.40946 0.56526
 C3114 C 1.18324 0.42336 0.57658
 N3115 N 1.19074 0.42987 0.59546
 N3116 N 1.20897 0.42271 0.60278
 C3117 C 0.79612 0.87567 0.62356
 N3118 N 0.80123 0.85524 0.62034
 N3119 N 0.81864 0.84718 0.62865
 C3120 C 0.83170 0.85925 0.64046
 N3121 N 0.82658 0.87974 0.64355
 N3122 N 0.80912 0.88778 0.63531
 C3123 C 0.77666 0.88439 0.61477
 N3124 N 0.77036 0.90414 0.61975
 N3125 N 0.75248 0.91185 0.61210
 C3126 C 0.74030 0.90013 0.59912
 N3127 N 0.74666 0.88042 0.59406
 N3128 N 0.76449 0.87268 0.60178
 C3129 C 0.72041 0.90843 0.59093
 N3130 N 0.70905 0.89723 0.57682
 N3131 N 0.69084 0.90456 0.56962
 C3132 C 0.68320 0.92333 0.57629
 N3133 N 0.69463 0.93452 0.59041
 N3134 N 0.71290 0.92724 0.59756
 C3135 C 0.79620 0.37560 1.12365
 N3136 N 0.80924 0.38775 1.13533
 N3137 N 0.82670 0.37970 1.14358
 C3138 C 0.83177 0.35919 1.14057
 N3139 N 0.81867 0.34710 1.12884
 N3140 N 0.80126 0.35515 1.12051
 C3141 C 0.77676 0.38432 1.11483
 N3142 N 0.76456 0.37259 1.10188
 N3143 N 0.74674 0.38033 1.09414
 C3144 C 0.74043 0.40007 1.09912
 N3145 N 0.75263 0.41182 1.11206
 N3146 N 0.77050 0.40410 1.11974
 C3147 C 0.72055 0.40838 1.09091
 N3148 N 0.71307 0.42722 1.09751
 N3149 N 0.69481 0.43451 1.09035
 C3150 C 0.68335 0.42330 1.07627
 N3151 N 0.69096 0.40450 1.06963
 N3152 N 0.70916 0.39717 1.07683
 C3153 C 0.70409 1.12321 1.12473
 N3154 N 0.69113 1.13485 1.11247
 N3155 N 0.67364 1.14317 1.12038
 C3156 C 0.66846 1.14026 1.14088
 N3157 N 0.68147 1.12856 1.15309
 N3158 N 0.69892 1.12017 1.14517
 C3159 C 0.72357 1.11434 1.11615
 N3160 N 0.73577 1.10151 1.12803
 N3161 N 0.75363 1.09375 1.12040
 C3162 C 0.75998 1.09858 1.10063
 N3163 N 0.74778 1.11139 1.08874
 N3164 N 0.72987 1.11909 1.09635
 C3165 C 0.77992 1.09040 1.09242
 N3166 N 0.78735 1.09686 1.07352
 N3167 N 0.80566 1.08978 1.06630
 C3168 C 0.81723 1.07590 1.07765
 N3169 N 0.80968 1.06938 1.09652
 N3170 N 0.79141 1.07651 1.10378
 C3171 C 0.70452 0.62335 0.62489
 N3172 N 0.69927 0.62020 0.64530
 N3173 N 0.68180 0.62854 0.65320
 C3174 C 0.66882 0.64029 0.64101
 N3175 N 0.67407 0.64332 0.62054
 N3176 N 0.69159 0.63506 0.61265
 C3177 C 0.72403 0.61454 0.61633
 N3178 N 0.73039 0.61939 0.59656
 N3179 N 0.74832 0.61173 0.58897
 C3180 C 0.76050 0.59887 0.60083
 N3181 N 0.75409 0.59394 0.62056
 N3182 N 0.73621 0.60167 0.62818
 C3183 C 0.78045 0.59071 0.59263
 N3184 N 0.79191 0.57677 0.60396
 N3185 N 0.81018 0.56964 0.59670
 C3186 C 0.81777 0.57621 0.57787
 N3187 N 0.80623 0.59015 0.56655
 N3188 N 0.78792 0.59723 0.57377
 C3189 C 0.20418 1.12327 0.62487
 N3190 N 0.19121 1.13489 0.61259
 N3191 N 0.17372 1.14322 0.62049
 C3192 C 0.16855 1.14033 0.64100
 N3193 N 0.18157 1.12865 0.65323
 N3194 N 0.19901 1.12026 0.64532
 C3195 C 0.22366 1.11441 0.61629
 N3196 N 0.23590 1.10164 0.62818
 N3197 N 0.25376 1.09388 0.62054
 C3198 C 0.26009 1.09867 0.60076
 N3199 N 0.24784 1.11142 0.58885
 N3200 N 0.22993 1.11912 0.59646
 C3201 C 0.28002 1.09049 0.59254
 N3202 N 0.28739 1.09687 0.57359
 N3203 N 0.30569 1.08977 0.56636
 C3204 C 0.31730 1.07595 0.57774
 N3205 N 0.30981 1.06951 0.59665
 N3206 N 0.29155 1.07667 0.60393
 C3207 C 0.20437 0.62323 1.12474
 N3208 N 0.19917 0.62015 1.14518
 N3209 N 0.18173 0.62854 1.15310
 C3210 C 0.16873 0.64027 1.14090
 N3211 N 0.17393 0.64322 1.12040
 N3212 N 0.19142 0.63490 1.11249
 C3213 C 0.22385 0.61437 1.11616
 N3214 N 0.23015 0.61914 1.09636
 N3215 N 0.24806 0.61144 1.08874
 C3216 C 0.26027 0.59864 1.10063
 N3217 N 0.25392 0.59379 1.12039
 N3218 N 0.23606 0.60154 1.12803
 C3219 C 0.28021 0.59045 1.09241
 N3220 N 0.29170 0.57658 1.10378
 N3221 N 0.30996 0.56942 1.09652
 C3222 C 0.31750 0.57590 1.07764
 N3223 N 0.30593 0.58978 1.06628
 N3224 N 0.28763 0.59688 1.07350
 C3225 C 0.70410 0.87575 0.87618
 N3226 N 0.69907 0.85531 0.87944
 N3227 N 0.68166 0.84719 0.87117
 C3228 C 0.66853 0.85921 0.85939
 N3229 N 0.67357 0.87972 0.85626
 N3230 N 0.69103 0.88782 0.86445
 C3231 C 0.72354 0.88452 0.88494
 N3232 N 0.72978 0.90429 0.87995
 N3233 N 0.74765 0.91206 0.88759
 C3234 C 0.75987 0.90036 0.90056
 N3235 N 0.75358 0.88063 0.90562
 N3236 N 0.73576 0.87285 0.89792
 C3237 C 0.77974 0.90871 0.90874
 N3238 N 0.79113 0.89752 0.92284
 N3239 N 0.80933 0.90487 0.93004
 C3240 C 0.81692 0.92367 0.92339
 N3241 N 0.80546 0.93486 0.90928
 N3242 N 0.78721 0.92754 0.90213
 C3243 C 0.70422 0.37671 0.37530
 N3244 N 0.69915 0.37984 0.35485
 N3245 N 0.68175 0.37148 0.34681
 C3246 C 0.66867 0.35973 0.35890
 N3247 N 0.67374 0.35673 0.37942
 N3248 N 0.69119 0.36501 0.38745
 C3249 C 0.72364 0.38556 0.38402
 N3250 N 0.72987 0.38072 0.40382
 N3251 N 0.74772 0.38843 0.41154
 C3252 C 0.75995 0.40133 0.39976
 N3253 N 0.75366 0.40625 0.38000
 N3254 N 0.73586 0.39848 0.37226
 C3255 C 0.77982 0.40956 0.40809
 N3256 N 0.79127 0.42355 0.39683
 N3257 N 0.80948 0.43075 0.40417
 C3258 C 0.81701 0.42419 0.42303
 N3259 N 0.80547 0.41019 0.43428
 N3260 N 0.78722 0.40304 0.42698
 C3261 C 0.20409 0.87676 0.37556
 N3262 N 0.19902 0.87984 0.35510
 N3263 N 0.18161 0.87148 0.34708
 C3264 C 0.16852 0.85978 0.35922
 N3265 N 0.17359 0.85684 0.37974
 N3266 N 0.19105 0.86512 0.38775
 C3267 C 0.22354 0.88558 0.38424
 N3268 N 0.22976 0.88078 0.40406
 N3269 N 0.24765 0.88844 0.41175
 C3270 C 0.25992 0.90124 0.39992
 N3271 N 0.25365 0.90612 0.38014
 N3272 N 0.23581 0.89840 0.37243
 C3273 C 0.27983 0.90941 0.40821
 N3274 N 0.29134 0.92330 0.39688
 N3275 N 0.30958 0.93046 0.40419
 C3276 C 0.31708 0.92396 0.42308
 N3277 N 0.30549 0.91007 0.43440
 N3278 N 0.28721 0.90296 0.42713
 C3279 C 0.20401 0.37650 0.87550
 N3280 N 0.19894 0.37962 0.85504
 N3281 N 0.18152 0.37128 0.84701
 C3282 C 0.16843 0.35955 0.85912
 N3283 N 0.17350 0.35656 0.87963
 N3284 N 0.19096 0.36483 0.88766
 C3285 C 0.22346 0.38530 0.88420
 N3286 N 0.22968 0.38045 0.90401
 N3287 N 0.24756 0.38811 0.91172
 C3288 C 0.25983 0.40095 0.89992
 N3289 N 0.25356 0.40586 0.88015
 N3290 N 0.23572 0.39815 0.87242
 C3291 C 0.27973 0.40912 0.90822
 N3292 N 0.29123 0.42304 0.89692
 N3293 N 0.30945 0.43021 0.90425
 C3294 C 0.31695 0.42370 0.92313
 N3295 N 0.30538 0.40977 0.93443
 N3296 N 0.28711 0.40264 0.92714
   
