data_POSCAR
  _audit_creation_date              2014-09-24
  _audit_creation_method            'ToBaCCo'
  _symmetry_space_group_name_H-M    'P1'
  _symmetry_Int_Tables_number       1
  _symmetry_cell_setting            triclinic
  loop_
  _symmetry_equiv_pos_as_xyz
 x,y,z
_cell_length_a 84.6386
_cell_length_b 84.5495
_cell_length_c 87.7170
_cell_angle_alpha 89.759100
_cell_angle_beta 89.731900
_cell_angle_gamma 89.814700
loop_
  _atom_site_label
  _atom_site_type_symbol
  _atom_site_fract_x
  _atom_site_fract_y
  _atom_site_fract_z
C1 C 0.41146 0.00931 0.26994
 H2 H 0.41254 0.01877 0.26166
 C3 C 0.42140 0.00898 0.28263
 H4 H 0.43007 0.01825 0.28401
 C5 C 0.39928 -0.01453 0.27789
 H6 H 0.39075 -0.02377 0.27600
 C7 C 0.40898 -0.01533 0.29069
 H8 H 0.40753 -0.02505 0.29865
 N9 N 0.40057 -0.00229 0.26783
 C10 C 0.39267 -0.00156 0.21843
 H11 H 0.37995 -0.00123 0.21784
 C12 C 0.40150 -0.00104 0.20495
 H13 H 0.39539 0.00001 0.19417
 C14 C 0.41601 -0.00325 0.23309
 H15 H 0.42169 -0.00437 0.24403
 C16 C 0.42532 -0.00271 0.21988
 H17 H 0.43805 -0.00339 0.22085
 Zn18 Zn 0.38726 -0.00201 0.25027
 N19 N 0.39997 -0.00239 0.23219
 C20 C 0.36208 0.01700 0.23982
 N21 N 0.37420 0.01650 0.24996
 C22 C 0.37700 0.02893 0.25937
 C23 C 0.36800 0.04278 0.25823
 C24 C 0.35277 0.03061 0.23832
 C25 C 0.37704 -0.03262 0.24168
 C26 C 0.36794 -0.04635 0.24277
 C27 C 0.35256 -0.03394 0.26264
 C28 C 0.36197 -0.02047 0.26110
 N29 N 0.37402 -0.02009 0.25086
 H30 H 0.35959 0.00682 0.23285
 H31 H 0.38629 0.02827 0.26771
 H32 H 0.37052 0.05255 0.26577
 H33 H 0.34351 0.03085 0.22985
 H34 H 0.38687 -0.03218 0.23377
 H35 H 0.37163 -0.05613 0.23573
 H36 H 0.34283 -0.03316 0.27060
 H37 H 0.35973 -0.01027 0.26821
 C38 C 0.41807 -0.00146 0.20556
 C39 C 0.42024 -0.00348 0.29322
 C40 C 0.35540 -0.04752 0.25355
 C41 C 0.35584 0.04385 0.24743
 C42 C 0.09792 0.01047 0.72217
 H43 H 0.10548 0.02061 0.72372
 C44 C 0.08855 0.00947 0.70912
 H45 H 0.08906 0.01889 0.70073
 C46 C 0.08870 -0.01445 0.73077
 H47 H 0.08893 -0.02377 0.73925
 C48 C 0.07917 -0.01594 0.71791
 H49 H 0.07192 -0.02639 0.71669
 N50 N 0.09776 -0.00137 0.73271
 C51 C 0.10602 0.00080 0.78170
 H52 H 0.11880 0.00065 0.78187
 C53 C 0.09754 0.00264 0.79528
 H54 H 0.10392 0.00357 0.80591
 C55 C 0.08226 0.00001 0.76755
 H56 H 0.07635 -0.00057 0.75668
 C57 C 0.07331 0.00180 0.78087
 H58 H 0.06057 0.00252 0.78008
 Zn59 Zn 0.11085 -0.00090 0.75020
 N60 N 0.09832 -0.00046 0.76819
 C61 C 0.11567 0.03174 0.75190
 N62 N 0.12339 0.01769 0.75051
 C63 C 0.13945 0.01696 0.75065
 C64 C 0.14837 0.03076 0.75218
 C65 C 0.12411 0.04581 0.75347
 C66 C 0.12318 -0.03044 0.76078
 C67 C 0.13206 -0.04436 0.75955
 C68 C 0.14189 -0.03522 0.73518
 C69 C 0.13281 -0.02150 0.73686
 N70 N 0.12374 -0.01932 0.74953
 H71 H 0.10288 0.03197 0.75201
 H72 H 0.14539 0.00566 0.74995
 H73 H 0.16112 0.02988 0.75260
 H74 H 0.11769 0.05686 0.75447
 H75 H 0.11567 -0.02866 0.77062
 H76 H 0.13153 -0.05300 0.76868
 H77 H 0.14879 -0.03681 0.72488
 H78 H 0.13281 -0.01262 0.72795
 C79 C 0.08096 0.00331 0.79497
 C80 C 0.07903 -0.00390 0.70683
 C81 C 0.14155 -0.04694 0.74659
 C82 C 0.14070 0.04544 0.75374
 C83 C 0.59954 0.51206 0.22125
 H84 H 0.60706 0.52213 0.22325
 C85 C 0.59044 0.51147 0.20801
 H86 H 0.59085 0.52130 0.20007
 C87 C 0.58998 0.48698 0.22905
 H88 H 0.59005 0.47739 0.23726
 C89 C 0.58070 0.48590 0.21598
 H90 H 0.57376 0.47535 0.21417
 N91 N 0.59908 0.49994 0.23150
 C92 C 0.60611 0.50085 0.28071
 H93 H 0.61887 0.50065 0.28122
 C94 C 0.59725 0.50224 0.29411
 H95 H 0.60331 0.50280 0.30494
 C96 C 0.58276 0.50056 0.26591
 H97 H 0.57716 0.50033 0.25489
 C98 C 0.57344 0.50190 0.27905
 H99 H 0.56072 0.50263 0.27794
 Zn100 Zn 0.61177 0.49986 0.24926
 N101 N 0.59879 0.50003 0.26697
 C102 C 0.61711 0.53240 0.25173
 N103 N 0.62459 0.51823 0.25019
 C104 C 0.64064 0.51721 0.25047
 C105 C 0.64979 0.53081 0.25229
 C106 C 0.62579 0.54628 0.25358
 C107 C 0.62355 0.46998 0.25955
 C108 C 0.63228 0.45598 0.25823
 C109 C 0.64255 0.46537 0.23412
 C110 C 0.63362 0.47917 0.23589
 N111 N 0.62441 0.48126 0.24847
 H112 H 0.60433 0.53287 0.25170
 H113 H 0.64638 0.50581 0.24963
 H114 H 0.66252 0.52969 0.25278
 H115 H 0.61957 0.55743 0.25467
 H116 H 0.61595 0.47170 0.26932
 H117 H 0.63153 0.44719 0.26722
 H118 H 0.64959 0.46386 0.22389
 H119 H 0.63384 0.48820 0.22711
 C120 C 0.58067 0.50289 0.29339
 C121 C 0.58086 0.49824 0.20521
 C122 C 0.64191 0.45349 0.24535
 C123 C 0.64238 0.54561 0.25398
 C124 C 0.91006 0.51102 0.77181
 H125 H 0.91072 0.52044 0.76344
 C126 C 0.91969 0.51144 0.78473
 H127 H 0.92789 0.52115 0.78568
 C128 C 0.89895 0.48677 0.77986
 H129 H 0.89061 0.47732 0.77816
 C130 C 0.90834 0.48666 0.79289
 H131 H 0.90653 0.47716 0.80099
 N132 N 0.90019 0.49865 0.76945
 C133 C 0.89422 0.49512 0.72012
 H134 H 0.88150 0.49406 0.71954
 C135 C 0.90317 0.49546 0.70671
 H136 H 0.89725 0.49442 0.69585
 C137 C 0.91732 0.49779 0.73502
 H138 H 0.92282 0.49870 0.74605
 C139 C 0.92674 0.49814 0.72188
 H140 H 0.93939 0.49957 0.72299
 Zn141 Zn 0.88794 0.49806 0.75132
 N142 N 0.90132 0.49674 0.73389
 C143 C 0.87766 0.52694 0.73807
 N144 N 0.87563 0.51698 0.75014
 C145 C 0.86529 0.52057 0.76155
 C146 C 0.85609 0.53435 0.76078
 C147 C 0.86873 0.54079 0.73684
 C148 C 0.88232 0.46548 0.75091
 C149 C 0.87369 0.45146 0.75195
 C150 C 0.84974 0.46697 0.75357
 C151 C 0.85885 0.48072 0.75252
 N152 N 0.87488 0.47975 0.75154
 H153 H 0.88630 0.52428 0.72936
 H154 H 0.86408 0.51264 0.77120
 H155 H 0.84769 0.53682 0.76981
 H156 H 0.87066 0.54855 0.72717
 H157 H 0.89506 0.46502 0.74990
 H158 H 0.87989 0.44026 0.75152
 H159 H 0.83705 0.46802 0.75479
 H160 H 0.85309 0.49213 0.75272
 C161 C 0.91964 0.49730 0.70747
 C162 C 0.91919 0.49900 0.79555
 C163 C 0.85717 0.45207 0.75352
 C164 C 0.85766 0.54462 0.74822
 C165 C 0.22939 0.38493 0.98660
 H166 H 0.23826 0.38481 0.97768
 C167 C 0.21572 0.39405 0.98485
 H168 H 0.21432 0.40116 0.97464
 C169 C 0.22046 0.37561 1.01063
 H170 H 0.22215 0.36810 1.02048
 C171 C 0.20660 0.38457 1.00935
 H172 H 0.19779 0.38385 1.01831
 N173 N 0.23152 0.37595 0.99933
 C174 C 0.28237 0.36651 1.00095
 H175 H 0.28222 0.35372 1.00122
 C176 C 0.29670 0.37455 1.00213
 H177 H 0.30753 0.36781 1.00333
 C178 C 0.26828 0.39074 0.99986
 H179 H 0.25716 0.39700 0.99926
 C180 C 0.28236 0.39926 1.00104
 H181 H 0.28191 0.41206 1.00099
 Zn182 Zn 0.24962 0.36261 0.99984
 N183 N 0.26854 0.37464 0.99981
 C184 C 0.26005 0.34927 0.97162
 N185 N 0.24846 0.34950 0.98241
 C186 C 0.23505 0.34088 0.98075
 C187 C 0.23293 0.33144 0.96791
 C188 C 0.25842 0.33997 0.95858
 C189 C 0.25143 0.35768 1.03137
 C190 C 0.25311 0.34909 1.04490
 C191 C 0.25168 0.32494 1.03038
 C192 C 0.25005 0.33399 1.01711
 N193 N 0.24995 0.35007 1.01783
 H194 H 0.27046 0.35649 0.97297
 H195 H 0.22594 0.34142 0.98943
 H196 H 0.22222 0.32456 0.96691
 H197 H 0.26764 0.34017 0.94998
 H198 H 0.25156 0.37047 1.03160
 H199 H 0.25421 0.35539 1.05556
 H200 H 0.25210 0.31217 1.02952
 H201 H 0.24931 0.32814 1.00622
 C202 C 0.29684 0.39117 1.00228
 C203 C 0.20402 0.39387 0.99626
 C204 C 0.25338 0.33247 1.04451
 C205 C 0.24467 0.33094 0.95656
 C206 C 0.76896 0.11565 0.98726
 H207 H 0.76015 0.11501 0.97838
 C208 C 0.78312 0.10724 0.98576
 H209 H 0.78449 0.09976 0.97588
 C210 C 0.77711 0.12602 1.01091
 H211 H 0.77496 0.13376 1.02048
 C212 C 0.79144 0.11780 1.00994
 H213 H 0.79997 0.11977 1.01885
 N214 N 0.76621 0.12483 0.99966
 C215 C 0.71505 0.13242 1.00140
 H216 H 0.71486 0.14521 1.00160
 C217 C 0.70092 0.12401 1.00253
 H218 H 0.68992 0.13047 1.00367
 C219 C 0.72978 0.10858 1.00035
 H220 H 0.74108 0.10262 0.99974
 C221 C 0.71590 0.09968 1.00150
 H222 H 0.71667 0.08689 1.00144
 Zn223 Zn 0.74756 0.13739 0.99989
 N224 N 0.72910 0.12466 1.00024
 C225 C 0.73653 0.14944 0.97145
 N226 N 0.74815 0.15018 0.98208
 C227 C 0.76107 0.15944 0.97990
 C228 C 0.76265 0.16854 0.96665
 C229 C 0.73763 0.15835 0.95803
 C230 C 0.74522 0.14257 1.03122
 C231 C 0.74336 0.15117 1.04466
 C232 C 0.74449 0.17531 1.02987
 C233 C 0.74629 0.16623 1.01668
 N234 N 0.74667 0.15016 1.01759
 H235 H 0.72649 0.14179 0.97323
 H236 H 0.77028 0.15959 0.98841
 H237 H 0.77318 0.17560 0.96502
 H238 H 0.72820 0.15766 0.94976
 H239 H 0.74534 0.12978 1.03160
 H240 H 0.74235 0.14488 1.05540
 H241 H 0.74392 0.18806 1.02890
 H242 H 0.74704 0.17205 1.00572
 C243 C 0.70120 0.10739 1.00262
 C244 C 0.79488 0.10826 0.99712
 C245 C 0.74287 0.16777 1.04410
 C246 C 0.75087 0.16800 0.95544
 C247 C 0.26916 0.61522 0.48798
 H248 H 0.26033 0.61508 0.47911
 C249 C 0.28306 0.60643 0.48626
 H250 H 0.28468 0.59932 0.47614
 C251 C 0.27776 0.62485 0.51185
 H252 H 0.27583 0.63235 0.52163
 C253 C 0.29184 0.61623 0.51061
 H254 H 0.30058 0.61720 0.51952
 N255 N 0.26675 0.62419 0.50062
 C256 C 0.21567 0.63219 0.50273
 H257 H 0.21548 0.64498 0.50302
 C258 C 0.20155 0.62377 0.50389
 H259 H 0.19054 0.63021 0.50514
 C260 C 0.23039 0.60836 0.50146
 H261 H 0.24168 0.60239 0.50076
 C262 C 0.21653 0.59945 0.50262
 H263 H 0.21731 0.58667 0.50247
 Zn264 Zn 0.24829 0.63702 0.50115
 N265 N 0.22972 0.62444 0.50146
 C266 C 0.23733 0.64952 0.47283
 N267 N 0.24896 0.65001 0.48347
 C268 C 0.26205 0.65905 0.48133
 C269 C 0.26383 0.66811 0.46808
 C270 C 0.23863 0.65841 0.45941
 C271 C 0.24627 0.64186 0.53259
 C272 C 0.24454 0.65033 0.54613
 C273 C 0.24570 0.67461 0.53156
 C274 C 0.24739 0.66566 0.51828
 N275 N 0.24767 0.64958 0.51903
 H276 H 0.22716 0.64205 0.47459
 H277 H 0.27126 0.65899 0.48984
 H278 H 0.27452 0.67494 0.46647
 H279 H 0.22922 0.65789 0.45111
 H280 H 0.24630 0.62907 0.53285
 H281 H 0.24354 0.64394 0.55681
 H282 H 0.24518 0.68738 0.53070
 H283 H 0.24810 0.67158 0.50737
 C284 C 0.20184 0.60715 0.50390
 C285 C 0.29470 0.60694 0.49762
 C286 C 0.24412 0.66695 0.54573
 C287 C 0.25208 0.66778 0.45683
 C288 C 0.72918 0.88452 0.48833
 H289 H 0.73817 0.88462 0.47952
 C290 C 0.71541 0.89349 0.48650
 H291 H 0.71391 0.90044 0.47621
 C292 C 0.71995 0.87463 0.51203
 H293 H 0.72160 0.86703 0.52183
 C294 C 0.70598 0.88339 0.51066
 H295 H 0.69718 0.88269 0.51964
 N296 N 0.73121 0.87534 0.50094
 C297 C 0.78211 0.86633 0.50355
 H298 H 0.78200 0.85354 0.50387
 C299 C 0.79639 0.87443 0.50483
 H300 H 0.80722 0.86773 0.50619
 C301 C 0.76795 0.89050 0.50208
 H302 H 0.75682 0.89671 0.50124
 C303 C 0.78199 0.89908 0.50335
 H304 H 0.78151 0.91188 0.50315
 Zn305 Zn 0.74947 0.86220 0.50162
 N306 N 0.76827 0.87440 0.50212
 C307 C 0.76085 0.84954 0.47350
 N308 N 0.74893 0.84934 0.48396
 C309 C 0.73573 0.84053 0.48174
 C310 C 0.73417 0.83133 0.46865
 C311 C 0.75978 0.84051 0.46024
 C312 C 0.75060 0.85690 0.53311
 C313 C 0.75178 0.84818 0.54661
 C314 C 0.75089 0.82416 0.53183
 C315 C 0.74968 0.83335 0.51860
 N316 N 0.74951 0.84942 0.51946
 H317 H 0.77111 0.85683 0.47531
 H318 H 0.72631 0.84081 0.49012
 H319 H 0.72344 0.82464 0.46700
 H320 H 0.76943 0.84074 0.45210
 H321 H 0.75079 0.86968 0.53345
 H322 H 0.75293 0.85438 0.55732
 H323 H 0.75094 0.81140 0.53092
 H324 H 0.74917 0.82760 0.50764
 C325 C 0.79649 0.89105 0.50477
 C326 C 0.70350 0.89290 0.49770
 C327 C 0.75202 0.83157 0.54609
 C328 C 0.74627 0.83128 0.45764
 C329 C 0.00739 0.27253 0.38968
 H330 H 0.01856 0.26630 0.39021
 C331 C 0.00491 0.28590 0.39857
 H332 H 0.01418 0.28981 0.40612
 C333 C -0.01821 0.27497 0.37901
 H334 H -0.02702 0.27086 0.37111
 C335 C -0.02120 0.28844 0.38773
 H336 H -0.03234 0.29462 0.38646
 N337 N -0.00410 0.26734 0.38019
 C338 C 0.00856 0.21833 0.37284
 H339 H 0.00972 0.21830 0.36055
 C340 C 0.01085 0.20441 0.38109
 H341 H 0.01433 0.19397 0.37482
 C342 C 0.00326 0.23249 0.39551
 H343 H -0.00015 0.24337 0.40105
 C344 C 0.00544 0.21886 0.40425
 H345 H 0.00331 0.21970 0.41638
 Zn346 Zn 0.00130 0.24996 0.36798
 N347 N 0.00495 0.23199 0.38013
 C348 C 0.03342 0.24765 0.35958
 N349 N 0.01970 0.25566 0.35727
 C350 C 0.01910 0.26870 0.34816
 C351 C 0.03266 0.27398 0.34065
 C352 C 0.04727 0.25257 0.35239
 C353 C -0.02895 0.24012 0.36097
 C354 C -0.04167 0.23602 0.35181
 C355 C -0.02553 0.24137 0.32956
 C356 C -0.01310 0.24536 0.33918
 N357 N -0.01513 0.24492 0.35456
 H358 H 0.03375 0.23759 0.36721
 H359 H 0.00807 0.27506 0.34685
 H360 H 0.03205 0.28442 0.33348
 H361 H 0.05808 0.24597 0.35423
 H362 H -0.03010 0.23964 0.37325
 H363 H -0.05274 0.23269 0.35713
 H364 H -0.02378 0.24182 0.31733
 H365 H -0.00185 0.24873 0.33433
 C366 C 0.00923 0.20437 0.39713
 C367 C -0.00947 0.29412 0.39754
 C368 C -0.04008 0.23674 0.33588
 C369 C 0.04698 0.26591 0.34282
 C370 C 0.00543 0.72801 0.11017
 H371 H 0.01692 0.73357 0.10965
 C372 C 0.00275 0.71403 0.10229
 H373 H 0.01230 0.70877 0.09577
 C374 C -0.02079 0.72788 0.11982
 H375 H -0.02985 0.73323 0.12683
 C376 C -0.02398 0.71383 0.11216
 H377 H -0.03559 0.70857 0.11313
 N378 N -0.00632 0.73472 0.11856
 C379 C 0.00642 0.78419 0.12102
 H380 H 0.00639 0.78579 0.13325
 C381 C 0.00940 0.79700 0.11141
 H382 H 0.01152 0.80852 0.11632
 C383 C 0.00293 0.76730 0.09979
 H384 H 0.00012 0.75578 0.09532
 C385 C 0.00582 0.77980 0.08975
 H386 H 0.00547 0.77771 0.07758
 Zn387 Zn -0.00129 0.75336 0.12901
 N388 N 0.00338 0.76970 0.11511
 C389 C 0.03017 0.75660 0.13886
 N390 N 0.01636 0.74879 0.14123
 C391 C 0.01523 0.73683 0.15159
 C392 C 0.02830 0.73250 0.16032
 C393 C 0.04353 0.75260 0.14725
 C394 C -0.03153 0.76502 0.13307
 C395 C -0.04512 0.76969 0.14085
 C396 C -0.03154 0.76495 0.16458
 C397 C -0.01818 0.76045 0.15627
 N398 N -0.01859 0.76014 0.14082
 H399 H 0.03096 0.76576 0.13029
 H400 H 0.00418 0.73056 0.15294
 H401 H 0.02728 0.72289 0.16846
 H402 H 0.05441 0.75902 0.14531
 H403 H -0.03130 0.76517 0.12073
 H404 H -0.05478 0.77397 0.13396
 H405 H -0.03072 0.76388 0.17682
 H406 H -0.00761 0.75688 0.16222
 C407 C 0.00907 0.79488 0.09555
 C408 C -0.01212 0.70679 0.10321
 C409 C -0.04570 0.76932 0.15701
 C410 C 0.04269 0.74039 0.15811
 C411 C 0.49387 0.23859 0.59725
 H412 H 0.49735 0.24997 0.59276
 C413 C 0.48975 0.22653 0.58723
 H414 H 0.49021 0.22872 0.57506
 C415 C 0.48868 0.22195 0.61850
 H416 H 0.48840 0.22030 0.63074
 C417 C 0.48448 0.20958 0.60892
 H418 H 0.48123 0.19830 0.61388
 N419 N 0.49367 0.23594 0.61255
 C420 C 0.49812 0.28399 0.61919
 H421 H 0.48860 0.28431 0.62741
 C422 C 0.50241 0.29781 0.61157
 H423 H 0.49586 0.30859 0.61375
 C424 C 0.51825 0.26963 0.60636
 H425 H 0.52442 0.25856 0.60454
 C426 C 0.52289 0.28318 0.59841
 H427 H 0.53267 0.28252 0.59043
 Zn428 Zn 0.50005 0.25149 0.62649
 N429 N 0.50586 0.27021 0.61627
 C430 C 0.52410 0.25487 0.64762
 N431 N 0.51781 0.24455 0.63750
 C432 C 0.52457 0.23020 0.63486
 C433 C 0.53813 0.22565 0.64275
 C434 C 0.53760 0.25080 0.65578
 C435 C 0.46901 0.25958 0.63302
 C436 C 0.45565 0.26241 0.64195
 C437 C 0.47096 0.25598 0.66435
 C438 C 0.48404 0.25329 0.65498
 N439 N 0.48286 0.25529 0.63963
 H440 H 0.51866 0.26634 0.64922
 H441 H 0.51963 0.22234 0.62648
 H442 H 0.54335 0.21418 0.64057
 H443 H 0.54259 0.25927 0.66361
 H444 H 0.46837 0.26079 0.62075
 H445 H 0.44467 0.26563 0.63645
 H446 H 0.47211 0.25448 0.67656
 H447 H 0.49505 0.24949 0.65998
 C448 C 0.51484 0.29747 0.60094
 C449 C 0.48526 0.21171 0.59305
 C450 C 0.45655 0.26062 0.65783
 C451 C 0.54480 0.23603 0.65335
 C452 C 0.50725 0.77395 0.89041
 H453 H 0.51851 0.76790 0.89115
 C454 C 0.50457 0.78756 0.89889
 H455 H 0.51377 0.79185 0.90634
 C456 C 0.48165 0.77569 0.87964
 H457 H 0.47292 0.77120 0.87184
 C458 C 0.47845 0.78939 0.88794
 H459 H 0.46722 0.79536 0.88649
 N460 N 0.49586 0.76829 0.88107
 C461 C 0.50889 0.71912 0.87518
 H462 H 0.50978 0.71864 0.86288
 C463 C 0.51144 0.70553 0.88387
 H464 H 0.51413 0.69451 0.87817
 C465 C 0.50365 0.73405 0.89748
 H466 H 0.50037 0.74512 0.90272
 C467 C 0.50608 0.72074 0.90661
 H468 H 0.50492 0.72177 0.91887
 Zn469 Zn 0.50156 0.75060 0.86940
 N470 N 0.50522 0.73302 0.88208
 C471 C 0.53381 0.74824 0.86147
 N472 N 0.52009 0.75615 0.85883
 C473 C 0.51956 0.76900 0.84946
 C474 C 0.53321 0.77419 0.84203
 C475 C 0.54773 0.75308 0.85437
 C476 C 0.47147 0.74038 0.86207
 C477 C 0.45893 0.73611 0.85273
 C478 C 0.47553 0.74102 0.83072
 C479 C 0.48777 0.74519 0.84050
 N480 N 0.48541 0.74508 0.85584
 H481 H 0.53406 0.73834 0.86927
 H482 H 0.50853 0.77528 0.84788
 H483 H 0.53266 0.78448 0.83466
 H484 H 0.55854 0.74656 0.85647
 H485 H 0.47006 0.74015 0.87434
 H486 H 0.44774 0.73291 0.85790
 H487 H 0.47754 0.74125 0.81852
 H488 H 0.49911 0.74847 0.83580
 C489 C 0.51002 0.70626 0.89980
 C490 C 0.49008 0.79554 0.89760
 C491 C 0.46085 0.73655 0.83683
 C492 C 0.54752 0.76622 0.84455
 C493 C -0.23883 0.65103 0.97453
 H494 H -0.22867 0.64352 0.97638
 C495 C -0.23947 0.66064 0.96153
 H496 H -0.22974 0.66037 0.95347
 C497 C -0.26416 0.65994 0.98234
 H498 H -0.27377 0.65951 0.99050
 C499 C -0.26529 0.66970 0.96951
 H500 H -0.27577 0.67691 0.96799
 N501 N -0.25104 0.65094 0.98467
 C502 C -0.25076 0.64255 1.03377
 H503 H -0.25064 0.62976 1.03407
 C504 C -0.24997 0.65108 1.04735
 H505 H -0.24890 0.64439 1.05782
 C506 C -0.25095 0.66622 1.01935
 H507 H -0.25111 0.67212 1.00840
 C508 C -0.25010 0.67525 1.03263
 H509 H -0.25035 0.68797 1.03139
 Zn510 Zn -0.25099 0.63769 1.00219
 N511 N -0.25132 0.65018 1.02013
 C512 C -0.21837 0.63288 1.00471
 N513 N -0.23232 0.62517 1.00299
 C514 C -0.23292 0.60908 1.00291
 C515 C -0.21909 0.60014 1.00445
 C516 C -0.20427 0.62441 1.00630
 C517 C -0.28071 0.62514 1.01191
 C518 C -0.29447 0.61619 1.01031
 C519 C -0.28453 0.60667 0.98617
 C520 C -0.27097 0.61579 0.98824
 N521 N -0.26926 0.62474 1.00098
 H522 H -0.21824 0.64567 1.00496
 H523 H -0.24415 0.60314 1.00195
 H524 H -0.21985 0.58736 1.00461
 H525 H -0.19329 0.63081 1.00749
 H526 H -0.27936 0.63263 1.02176
 H527 H -0.30355 0.61690 1.01901
 H528 H -0.28555 0.59953 0.97601
 H529 H -0.26179 0.61585 0.97962
 C530 C -0.24953 0.66780 1.04708
 C531 C -0.25285 0.67014 0.95886
 C532 C -0.29656 0.60683 0.99726
 C533 C -0.20449 0.60779 1.00625
 C534 C -0.23863 0.33855 0.51909
 H535 H -0.22901 0.33785 0.51095
 C536 C -0.23867 0.32917 0.53144
 H537 H -0.22910 0.32078 0.53271
 C538 C -0.26310 0.35053 0.52599
 H539 H -0.27252 0.35890 0.52403
 C540 C -0.26368 0.34048 0.53974
 H541 H -0.27341 0.34245 0.54753
 N542 N -0.25152 0.34925 0.51628
 C543 C -0.25415 0.35527 0.46684
 H544 H -0.25502 0.36801 0.46608
 C545 C -0.25388 0.34621 0.45357
 H546 H -0.25443 0.35213 0.44261
 C547 C -0.25178 0.33220 0.48209
 H548 H -0.25108 0.32675 0.49321
 C549 C -0.25144 0.32269 0.46910
 H550 H -0.25051 0.30998 0.47041
 Zn551 Zn -0.25157 0.36158 0.49807
 N552 N -0.25272 0.34822 0.48073
 C553 C -0.22250 0.37169 0.48516
 N554 N -0.23253 0.37355 0.49720
 C555 C -0.22900 0.38359 0.50877
 C556 C -0.21521 0.39269 0.50821
 C557 C -0.20863 0.38053 0.48414
 C558 C -0.28400 0.36800 0.49695
 C559 C -0.29786 0.37694 0.49797
 C560 C -0.28198 0.40047 0.50010
 C561 C -0.26842 0.39102 0.49907
 N562 N -0.26965 0.37505 0.49791
 H563 H -0.22514 0.36330 0.47631
 H564 H -0.23700 0.38467 0.51836
 H565 H -0.21281 0.40088 0.51735
 H566 H -0.20082 0.37877 0.47449
 H567 H -0.28467 0.35530 0.49569
 H568 H -0.30895 0.37076 0.49686
 H569 H -0.28031 0.41299 0.50186
 H570 H -0.25693 0.39649 0.49957
 C571 C -0.25225 0.32969 0.45458
 C572 C -0.25208 0.32984 0.54259
 C573 C -0.29717 0.39352 0.49989
 C574 C -0.20488 0.39133 0.49568
 C575 C 0.26130 -0.15121 0.02877
 H576 H 0.27153 -0.14389 0.02665
 C577 C 0.26055 -0.16000 0.04149
 H578 H 0.27060 -0.15987 0.04904
 C579 C 0.23631 -0.16035 0.02018
 H580 H 0.22681 -0.16019 0.01197
 C581 C 0.23495 -0.17027 0.03400
 H582 H 0.22404 -0.17669 0.03554
 N583 N 0.24868 -0.15156 0.01790
 C584 C 0.25001 -0.14363 -0.03129
 H585 H 0.24986 -0.13084 -0.03167
 C586 C 0.25128 -0.15223 -0.04480
 H587 H 0.25215 -0.14593 -0.05554
 C588 C 0.24981 -0.16728 -0.01672
 H589 H 0.24954 -0.17311 -0.00575
 C590 C 0.25112 -0.17635 -0.02996
 H591 H 0.25147 -0.18912 -0.02902
 Zn592 Zn 0.24882 -0.13856 0.00021
 N593 N 0.24921 -0.15122 -0.01761
 C594 C 0.28137 -0.13319 -0.00193
 N595 N 0.26719 -0.12572 -0.00050
 C596 C 0.26617 -0.10966 -0.00070
 C597 C 0.27980 -0.10047 -0.00228
 C598 C 0.29528 -0.12447 -0.00355
 C599 C 0.21910 -0.12659 -0.01004
 C600 C 0.20513 -0.11782 -0.00876
 C601 C 0.21427 -0.10781 0.01534
 C602 C 0.22803 -0.11680 0.01359
 N603 N 0.23025 -0.12590 0.00103
 H604 H 0.28184 -0.14598 -0.00197
 H605 H 0.25478 -0.10392 0.00003
 H606 H 0.27870 -0.08771 -0.00270
 H607 H 0.30644 -0.13068 -0.00453
 H608 H 0.22095 -0.13405 -0.01986
 H609 H 0.19691 -0.11838 -0.01814
 H610 H 0.21288 -0.10129 0.02583
 H611 H 0.23692 -0.11675 0.02241
 C612 C 0.25190 -0.16884 -0.04426
 C613 C 0.24648 -0.17020 0.04465
 C614 C 0.20234 -0.10818 0.00412
 C615 C 0.29462 -0.10786 -0.00382
 C616 C 0.26044 1.15146 0.47292
 H617 H 0.27061 1.14395 0.47475
 C618 C 0.25966 1.16086 0.45979
 H619 H 0.26929 1.16043 0.45163
 C620 C 0.23522 1.16054 0.48088
 H621 H 0.22571 1.16025 0.48916
 C622 C 0.23395 1.17010 0.46792
 H623 H 0.22347 1.17730 0.46641
 N624 N 0.24835 1.15155 0.48320
 C625 C 0.24914 1.14356 0.53235
 H626 H 0.24929 1.13077 0.53273
 C627 C 0.24996 1.15218 0.54587
 H628 H 0.25079 1.14589 0.55662
 C629 C 0.24863 1.16721 0.51778
 H630 H 0.24842 1.17303 0.50681
 C631 C 0.24948 1.17629 0.53103
 H632 H 0.24954 1.18907 0.53008
 Zn633 Zn 0.24861 1.13850 0.50084
 N634 N 0.24840 1.15113 0.51867
 C635 C 0.28124 1.13397 0.50312
 N636 N 0.26735 1.12610 0.50161
 C637 C 0.26691 1.11002 0.50167
 C638 C 0.28085 1.10123 0.50313
 C639 C 0.29544 1.12566 0.50463
 C640 C 0.21896 1.12617 0.51091
 C641 C 0.20512 1.11732 0.50950
 C642 C 0.21491 1.10724 0.48552
 C643 C 0.22855 1.11630 0.48738
 N644 N 0.23036 1.12549 0.49994
 H645 H 0.28125 1.14677 0.50326
 H646 H 0.25573 1.10396 0.50086
 H647 H 0.28022 1.08844 0.50340
 H648 H 0.30637 1.13219 0.50564
 H649 H 0.22043 1.13379 0.52065
 H650 H 0.19625 1.11797 0.51841
 H651 H 0.21361 1.10025 0.47530
 H652 H 0.23764 1.11620 0.47867
 C653 C 0.25019 1.16879 0.54533
 C654 C 0.24626 1.17033 0.45714
 C655 C 0.20290 1.10774 0.49663
 C656 C 0.29539 1.10905 0.50471
 C657 C 0.13395 0.47843 0.26378
 H658 H 0.13381 0.48720 0.27273
 C659 C 0.14318 0.46479 0.26536
 H660 H 0.15035 0.46331 0.27546
 C661 C 0.12460 0.46973 0.23984
 H662 H 0.11704 0.47149 0.23009
 C663 C 0.13367 0.45592 0.24094
 H664 H 0.13299 0.44722 0.23195
 N665 N 0.12491 0.48067 0.25117
 C666 C 0.11533 0.53155 0.24943
 H667 H 0.10255 0.53136 0.24931
 C668 C 0.12331 0.54593 0.24815
 H669 H 0.11655 0.55679 0.24734
 C670 C 0.13957 0.51753 0.25051
 H671 H 0.14587 0.50641 0.25106
 C672 C 0.14804 0.53167 0.24926
 H673 H 0.16083 0.53123 0.24890
 Zn674 Zn 0.11153 0.49875 0.25074
 N675 N 0.12350 0.51773 0.25061
 C676 C 0.09822 0.50911 0.27900
 N677 N 0.09841 0.49752 0.26829
 C678 C 0.08975 0.48412 0.27013
 C679 C 0.08029 0.48203 0.28306
 C680 C 0.08892 0.50751 0.29212
 C681 C 0.10671 0.50080 0.21931
 C682 C 0.09827 0.50235 0.20575
 C683 C 0.07406 0.50043 0.22025
 C684 C 0.08304 0.49896 0.23352
 N685 N 0.09906 0.49913 0.23282
 H686 H 0.10547 0.51950 0.27752
 H687 H 0.09026 0.47501 0.26152
 H688 H 0.07338 0.47133 0.28421
 H689 H 0.08915 0.51673 0.30064
 H690 H 0.11950 0.50100 0.21907
 H691 H 0.10517 0.50289 0.19538
 H692 H 0.06141 0.50101 0.22176
 H693 H 0.07712 0.49815 0.24442
 C694 C 0.13991 0.54613 0.24796
 C695 C 0.14306 0.45324 0.25389
 C696 C 0.08149 0.50236 0.20582
 C697 C 0.07983 0.49379 0.29432
 C698 C -0.13354 1.01926 0.26387
 H699 H -0.13369 1.01056 0.27295
 C700 C -0.14224 1.03325 0.26536
 H701 H -0.14929 1.03508 0.27553
 C702 C -0.12395 1.02743 0.23969
 H703 H -0.11648 1.02533 0.22988
 C704 C -0.13248 1.04159 0.24070
 H705 H -0.13148 1.05020 0.23158
 N706 N -0.12462 1.01661 0.25119
 C707 C -0.11633 0.96549 0.25033
 H708 H -0.10355 0.96540 0.25002
 C709 C -0.12463 0.95129 0.24933
 H710 H -0.11810 0.94032 0.24822
 C711 C -0.14026 0.98007 0.25134
 H712 H -0.14630 0.99133 0.25182
 C713 C -0.14904 0.96612 0.25033
 H714 H -0.16182 0.96680 0.25039
 Zn715 Zn -0.11175 0.99816 0.25094
 N716 N -0.12419 0.97951 0.25134
 C717 C -0.09874 0.98795 0.27932
 N718 N -0.09852 0.99930 0.26828
 C719 C -0.08950 1.01248 0.26973
 C720 C -0.08015 1.01463 0.28262
 C721 C -0.08956 0.98962 0.29243
 C722 C -0.10738 0.99554 0.21951
 C723 C -0.09917 0.99360 0.20580
 C724 C -0.07470 0.99517 0.21971
 C725 C -0.08343 0.99704 0.23316
 N726 N -0.09947 0.99723 0.23282
 H727 H -0.10628 0.97774 0.27816
 H728 H -0.08969 1.02142 0.26086
 H729 H -0.07299 1.02518 0.28348
 H730 H -0.09017 0.98063 0.30123
 H731 H -0.12017 0.99561 0.21957
 H732 H -0.10606 0.99287 0.19549
 H733 H -0.06199 0.99444 0.22068
 H734 H -0.07733 0.99791 0.24391
 C735 C -0.14123 0.95146 0.24922
 C736 C -0.14170 1.04472 0.25372
 C737 C -0.08247 0.99324 0.20561
 C738 C -0.08016 1.00316 0.29426
 C739 C 0.36640 0.51895 -0.23667
 H740 H 0.36622 0.51010 -0.22772
 C741 C 0.35775 0.53294 -0.23497
 H742 H 0.35068 0.53461 -0.22478
 C743 C 0.37611 0.52753 -0.26067
 H744 H 0.38362 0.52560 -0.27048
 C745 C 0.36763 0.54170 -0.25944
 H746 H 0.36871 0.55048 -0.26840
 N747 N 0.37536 0.51650 -0.24936
 C748 C 0.38438 0.46460 -0.25086
 H749 H 0.39717 0.46459 -0.25069
 C750 C 0.37654 0.45095 -0.25204
 H751 H 0.38337 0.44013 -0.25226
 C752 C 0.36064 0.47973 -0.24965
 H753 H 0.35449 0.49094 -0.24924
 C754 C 0.35144 0.46494 -0.25083
 H755 H 0.33875 0.46612 -0.25146
 Zn756 Zn 0.38832 0.49809 -0.24981
 N757 N 0.37600 0.47934 -0.24970
 C758 C 0.40132 0.48756 -0.22150
 N759 N 0.40140 0.49908 -0.23237
 C760 C 0.41023 0.51237 -0.23072
 C761 C 0.41956 0.51443 -0.21780
 C762 C 0.41048 0.48914 -0.20837
 C763 C 0.39318 0.49633 -0.28132
 C764 C 0.40170 0.49511 -0.29494
 C765 C 0.42589 0.49613 -0.28049
 C766 C 0.41690 0.49738 -0.26714
 N767 N 0.40084 0.49756 -0.26779
 H768 H 0.39393 0.47727 -0.22284
 H769 H 0.40992 0.52144 -0.23945
 H770 H 0.42659 0.52505 -0.21680
 H771 H 0.41002 0.48000 -0.19971
 H772 H 0.38040 0.49616 -0.28149
 H773 H 0.39536 0.49393 -0.30556
 H774 H 0.43866 0.49614 -0.27975
 H775 H 0.42279 0.49800 -0.25627
 C776 C 0.35888 0.45080 -0.25224
 C777 C 0.35839 0.54463 -0.24639
 C778 C 0.41829 0.49496 -0.29464
 C779 C 0.41971 0.50277 -0.20635
 C780 C 0.63423 -0.02149 -0.23722
 H781 H 0.63442 -0.01242 -0.22856
 C782 C 0.64294 -0.03462 -0.23551
 H783 H 0.65041 -0.03550 -0.22559
 C784 C 0.62436 -0.02980 -0.26126
 H785 H 0.61674 -0.02819 -0.27098
 C786 C 0.63384 -0.04446 -0.25993
 H787 H 0.63245 -0.05310 -0.26885
 N788 N 0.62467 -0.01923 -0.25054
 C789 C 0.61560 0.03169 -0.25274
 H790 H 0.60281 0.03165 -0.25271
 C791 C 0.62372 0.04597 -0.25427
 H792 H 0.61675 0.05669 -0.25475
 C793 C 0.63963 0.01745 -0.25159
 H794 H 0.64579 0.00625 -0.25100
 C795 C 0.64827 0.03145 -0.25308
 H796 H 0.66098 0.03043 -0.25382
 Zn797 Zn 0.61143 -0.00103 -0.25114
 N798 N 0.62359 0.01781 -0.25143
 C799 C 0.59823 0.00968 -0.22296
 N800 N 0.59827 -0.00198 -0.23360
 C801 C 0.58946 -0.01526 -0.23167
 C802 C 0.58000 -0.01717 -0.21871
 C803 C 0.58892 0.00827 -0.20981
 C804 C 0.60680 0.00079 -0.28263
 C805 C 0.59841 0.00237 -0.29622
 C806 C 0.57408 0.00114 -0.28177
 C807 C 0.58295 -0.00047 -0.26844
 N808 N 0.59902 -0.00064 -0.26910
 H809 H 0.60559 0.01998 -0.22451
 H810 H 0.58985 -0.02444 -0.24022
 H811 H 0.57297 -0.02778 -0.21749
 H812 H 0.58928 0.01754 -0.20135
 H813 H 0.61958 0.00097 -0.28280
 H814 H 0.60486 0.00381 -0.30682
 H815 H 0.56131 0.00122 -0.28102
 H816 H 0.57696 -0.00125 -0.25756
 C817 C 0.64042 0.04617 -0.25462
 C818 C 0.64280 -0.04721 -0.24743
 C819 C 0.58181 0.00266 -0.29591
 C820 C 0.57968 -0.00534 -0.20751
 C821 C 0.02190 0.25711 0.85745
 H822 H 0.01612 0.26850 0.85648
 C823 C 0.03467 0.25346 0.84803
 H824 H 0.03878 0.26218 0.83987
 C825 C 0.02398 0.23223 0.86988
 H826 H 0.01994 0.22412 0.87859
 C827 C 0.03685 0.22810 0.86071
 H828 H 0.04249 0.21670 0.86230
 N829 N 0.01679 0.24651 0.86805
 C830 C -0.03171 0.25997 0.87743
 H831 H -0.03114 0.26139 0.88967
 C832 C -0.04606 0.26187 0.86991
 H833 H -0.05652 0.26495 0.87642
 C834 C -0.01869 0.25411 0.85413
 H835 H -0.00808 0.25072 0.84808
 C836 C -0.03279 0.25590 0.84614
 H837 H -0.03289 0.25386 0.83396
 Zn838 Zn 0.00012 0.25302 0.88081
 N839 N -0.01841 0.25625 0.86947
 C840 C -0.00190 0.28549 0.88769
 N841 N 0.00643 0.27195 0.89012
 C842 C 0.01989 0.27188 0.89853
 C843 C 0.02523 0.28579 0.90528
 C844 C 0.00303 0.29964 0.89415
 C845 C -0.01035 0.22356 0.88994
 C846 C -0.01417 0.21127 0.89989
 C847 C -0.00631 0.22775 0.92099
 C848 C -0.00268 0.23978 0.91061
 N849 N -0.00449 0.23735 0.89540
 H850 H -0.01232 0.28539 0.88065
 H851 H 0.02648 0.26099 0.89997
 H852 H 0.03595 0.28558 0.91196
 H853 H -0.00393 0.31024 0.89233
 H854 H -0.01187 0.22209 0.87779
 H855 H -0.01837 0.20020 0.89528
 H856 H -0.00472 0.22977 0.93306
 H857 H 0.00156 0.25099 0.91473
 C858 C -0.04671 0.25976 0.85407
 C859 C 0.04237 0.23882 0.84967
 C860 C -0.01204 0.21325 0.91562
 C861 C 0.01673 0.29989 0.90309
 C862 C 0.47801 0.25507 0.14028
 H863 H 0.48423 0.26620 0.14097
 C864 C 0.46423 0.25277 0.14870
 H865 H 0.46000 0.26213 0.15607
 C866 C 0.47599 0.22940 0.12967
 H867 H 0.48042 0.22050 0.12195
 C868 C 0.46213 0.22659 0.13791
 H869 H 0.45599 0.21548 0.13648
 N870 N 0.48360 0.24346 0.13104
 C871 C 0.53292 0.25532 0.12489
 H872 H 0.53339 0.25612 0.11258
 C873 C 0.54659 0.25744 0.13340
 H874 H 0.55758 0.26009 0.12757
 C875 C 0.51793 0.25080 0.14739
 H876 H 0.50681 0.24784 0.15275
 C877 C 0.53132 0.25282 0.15636
 H878 H 0.53039 0.25140 0.16860
 Zn879 Zn 0.50152 0.24853 0.11935
 N880 N 0.51897 0.25215 0.13197
 C881 C 0.50447 0.28051 0.11056
 N882 N 0.49643 0.26686 0.10822
 C883 C 0.48386 0.26627 0.09865
 C884 C 0.47912 0.27977 0.09067
 C885 C 0.50008 0.29428 0.10290
 C886 C 0.51149 0.21804 0.11304
 C887 C 0.51593 0.20514 0.10417
 C888 C 0.51181 0.22111 0.08159
 C889 C 0.50743 0.23372 0.09091
 N890 N 0.50709 0.23186 0.10631
 H891 H 0.51415 0.28083 0.11853
 H892 H 0.47746 0.25531 0.09731
 H893 H 0.46905 0.27917 0.08313
 H894 H 0.50671 0.30503 0.10477
 H895 H 0.51136 0.21703 0.12534
 H896 H 0.51890 0.19407 0.10973
 H897 H 0.51198 0.22273 0.06933
 H898 H 0.50439 0.24497 0.08583
 C899 C 0.54589 0.25609 0.14934
 C900 C 0.45604 0.23843 0.14746
 C901 C 0.51600 0.20655 0.08822
 C902 C 0.48725 0.29400 0.09284
 C903 C -0.02085 0.75671 0.64064
 H904 H -0.01417 0.76759 0.64107
 C905 C -0.03413 0.75521 0.64875
 H906 H -0.03760 0.76492 0.65603
 C907 C -0.02274 0.73054 0.63081
 H908 H -0.01851 0.72115 0.62354
 C909 C -0.03745 0.72829 0.63960
 H910 H -0.04364 0.71726 0.63806
 N911 N -0.01515 0.74385 0.63152
 C912 C 0.03488 0.75266 0.62611
 H913 H 0.03579 0.75255 0.61381
 C914 C 0.04839 0.75448 0.63492
 H915 H 0.05971 0.75600 0.62930
 C916 C 0.01894 0.75072 0.64835
 H917 H 0.00749 0.74888 0.65352
 C918 C 0.03215 0.75251 0.65760
 H919 H 0.03076 0.75205 0.66987
 Zn920 Zn 0.00323 0.74764 0.62003
 N921 N 0.02053 0.75094 0.63292
 C922 C 0.00882 0.77855 0.60899
 N923 N -0.00062 0.76563 0.60797
 C924 C -0.01348 0.76551 0.59874
 C925 C -0.01709 0.77867 0.58976
 C926 C 0.00571 0.79191 0.60017
 C927 C 0.01230 0.71655 0.61498
 C928 C 0.01654 0.70324 0.60660
 C929 C 0.01304 0.71846 0.58345
 C930 C 0.00883 0.73149 0.59229
 N931 N 0.00832 0.73022 0.60774
 H932 H 0.01869 0.77860 0.61674
 H933 H -0.02091 0.75513 0.59836
 H934 H -0.02725 0.77836 0.58232
 H935 H 0.01327 0.80215 0.60120
 H936 H 0.01205 0.71601 0.62731
 H937 H 0.01923 0.69232 0.61256
 H938 H 0.01340 0.71964 0.57116
 H939 H 0.00610 0.74261 0.58679
 C940 C 0.04711 0.75435 0.65087
 C941 C -0.04331 0.74017 0.64824
 C942 C 0.01685 0.70408 0.59062
 C943 C -0.00735 0.79204 0.59037
 C944 C 0.52259 0.75774 0.35789
 H945 H 0.51724 0.76936 0.35726
 C946 C 0.53619 0.75447 0.34947
 H947 H 0.54129 0.76368 0.34240
 C948 C 0.52281 0.73188 0.36846
 H949 H 0.51766 0.72317 0.37600
 C950 C 0.53646 0.72812 0.36026
 H951 H 0.54159 0.71642 0.36140
 N952 N 0.51612 0.74647 0.36708
 C953 C 0.46606 0.75629 0.37148
 H954 H 0.46453 0.75384 0.38349
 C955 C 0.45285 0.75914 0.36246
 H956 H 0.44123 0.75901 0.36768
 C957 C 0.48291 0.75815 0.34990
 H958 H 0.49455 0.75748 0.34494
 C959 C 0.47000 0.76101 0.34044
 H960 H 0.47192 0.76279 0.32834
 Zn961 Zn 0.49783 0.75178 0.37840
 N962 N 0.48076 0.75608 0.36517
 C963 C 0.48979 0.77719 0.39756
 N964 N 0.50204 0.76969 0.39056
 C965 C 0.51715 0.77487 0.39215
 C966 C 0.52029 0.78848 0.40053
 C967 C 0.49239 0.79082 0.40603
 C968 C 0.48611 0.72161 0.38412
 C969 C 0.48179 0.70852 0.39286
 C970 C 0.48917 0.72287 0.41552
 C971 C 0.49339 0.73569 0.40632
 N972 N 0.49194 0.73474 0.39093
 H973 H 0.47794 0.77271 0.39652
 H974 H 0.52680 0.76852 0.38688
 H975 H 0.53233 0.79270 0.40131
 H976 H 0.48246 0.79668 0.41144
 H977 H 0.48506 0.72126 0.37184
 H978 H 0.47764 0.69798 0.38720
 H979 H 0.49044 0.72377 0.42776
 H980 H 0.49799 0.74631 0.41146
 C981 C 0.45475 0.76159 0.34674
 C982 C 0.54328 0.73949 0.35059
 C983 C 0.48342 0.70901 0.40878
 C984 C 0.50777 0.79676 0.40738
 Zr985 Zr 0.01303 -0.01009 1.02133
 O986 O 0.02712 -0.00260 1.03982
 O987 O 0.01191 -0.03453 1.02510
 O988 O 0.00148 -0.01356 1.04253
 O989 O 0.04387 -0.01071 0.99531
 O990 O -0.02298 -0.00292 1.03878
 O991 O 0.03659 -0.01823 1.01933
 O992 O -0.00397 -0.04335 1.00605
 O993 O -0.01032 -0.01534 1.01544
 O994 O 0.01377 -0.01873 0.99905
 O995 O 0.00054 0.01132 1.02357
 O996 O 0.02395 0.00783 1.00818
 Zr997 Zr -0.01221 0.01563 0.98089
 Zr998 Zr -0.02247 0.00622 1.01649
 Zr999 Zr 0.02336 -0.00067 0.98576
 Zr1000 Zr -0.00947 -0.02311 0.99292
 O1001 O 0.04274 0.01461 0.98192
 O1002 O -0.03119 -0.03346 0.99970
 O1003 O 0.00036 -0.00583 0.97845
 O1004 O -0.02283 -0.00226 0.99412
 O1005 O -0.01304 0.02445 1.00313
 O1006 O 0.01111 0.02073 0.98691
 C1007 C 0.00460 -0.04555 1.01798
 C1008 C 0.04672 -0.01723 1.00832
 C1009 C -0.01258 -0.00994 1.04708
 O1010 O -0.04288 -0.00799 1.01883
 O1011 O -0.04206 0.01864 1.00784
 O1012 O -0.03525 0.02508 0.98342
 C1013 C -0.04494 0.02512 0.99483
 O1014 O 0.02616 0.03105 1.02788
 Zr1015 Zr 0.01032 0.02863 1.00931
 O1016 O -0.01139 0.04016 0.97733
 O1017 O -0.02854 0.02447 1.03191
 O1018 O -0.00057 0.04391 1.02537
 O1019 O 0.03094 0.04064 1.00186
 O1020 O 0.00269 0.04908 0.99761
 C1021 C -0.00552 0.05129 0.98547
 O1022 O -0.02722 0.00840 0.96299
 O1023 O 0.03062 -0.01977 0.97183
 O1024 O -0.00128 0.01749 0.95919
 O1025 O 0.02281 0.00590 0.96267
 O1026 O 0.00158 -0.03968 0.97821
 O1027 O -0.02299 -0.02596 0.97276
 C1028 C 0.01233 0.01273 0.95431
 H1029 H 0.02018 -0.02848 0.99798
 H1030 H -0.03375 -0.00434 0.99067
 H1031 H 0.01602 0.02874 0.98014
 H1032 H 0.00073 0.01511 1.03423
 H1033 H -0.03079 -0.04477 0.99679
 H1034 H -0.04977 -0.00277 1.02648
 H1035 H -0.03914 0.02189 1.03607
 H1036 H 0.00470 0.05433 1.02456
 H1037 H -0.00421 -0.04981 0.97924
 H1038 H 0.04115 -0.01699 0.96762
 H1039 H 0.04971 0.00932 0.97440
 H1040 H 0.03001 0.05177 1.00527
 H1041 H -0.02700 -0.03693 0.97228
 H1042 H -0.02998 0.01799 0.95700
 H1043 H 0.03003 -0.01218 1.04577
 H1044 H 0.02807 0.04241 1.02981
 Zr1045 Zr 0.51385 0.49031 0.52040
 O1046 O 0.52771 0.49990 0.53812
 O1047 O 0.51441 0.46615 0.52561
 O1048 O 0.50284 0.48738 0.54194
 O1049 O 0.54422 0.48983 0.49387
 O1050 O 0.47768 0.49613 0.53798
 O1051 O 0.53782 0.48342 0.51841
 O1052 O 0.49885 0.45507 0.50744
 O1053 O 0.49079 0.48322 0.51527
 O1054 O 0.51476 0.48029 0.49866
 O1055 O 0.50006 0.51100 0.52162
 O1056 O 0.52342 0.50798 0.50602
 Zr1057 Zr 0.48644 0.51173 0.47901
 Zr1058 Zr 0.47731 0.50402 0.51526
 Zr1059 Zr 0.52300 0.49801 0.48417
 Zr1060 Zr 0.49176 0.47406 0.49326
 O1061 O 0.54134 0.51418 0.47911
 O1062 O 0.47088 0.46284 0.50113
 O1063 O 0.50027 0.49095 0.47760
 O1064 O 0.47714 0.49410 0.49345
 O1065 O 0.48540 0.52190 0.50070
 O1066 O 0.50947 0.51865 0.48430
 C1067 C 0.50776 0.45422 0.51929
 C1068 C 0.54765 0.48428 0.50715
 C1069 C 0.48861 0.49028 0.54648
 O1070 O 0.45778 0.48883 0.51866
 O1071 O 0.45696 0.51487 0.50632
 O1072 O 0.46301 0.52017 0.48148
 C1073 C 0.45357 0.52048 0.49306
 O1074 O 0.52442 0.53257 0.52429
 Zr1075 Zr 0.50852 0.52794 0.50618
 O1076 O 0.48569 0.53595 0.47392
 O1077 O 0.47041 0.52271 0.52985
 O1078 O 0.49691 0.54353 0.52148
 O1079 O 0.52823 0.54072 0.49769
 O1080 O 0.49943 0.54706 0.49339
 C1081 C 0.49096 0.54795 0.48126
 O1082 O 0.47159 0.50233 0.46195
 O1083 O 0.53120 0.47855 0.47121
 O1084 O 0.49690 0.51301 0.45707
 O1085 O 0.52168 0.50309 0.46077
 O1086 O 0.50355 0.45729 0.47931
 O1087 O 0.47807 0.46902 0.47363
 C1088 C 0.51072 0.50882 0.45223
 H1089 H 0.52175 0.47090 0.49803
 H1090 H 0.46631 0.49117 0.49034
 H1091 H 0.51377 0.52650 0.47700
 H1092 H 0.50017 0.51545 0.53204
 H1093 H 0.47196 0.45140 0.49894
 H1094 H 0.45071 0.49407 0.52613
 H1095 H 0.46005 0.51975 0.53432
 H1096 H 0.50148 0.55420 0.51994
 H1097 H 0.49846 0.44689 0.48108
 H1098 H 0.54145 0.48170 0.46663
 H1099 H 0.54851 0.50885 0.47177
 H1100 H 0.52663 0.55197 0.50042
 H1101 H 0.47474 0.45781 0.47392
 H1102 H 0.46812 0.51131 0.45545
 H1103 H 0.53131 0.49093 0.54456
 H1104 H 0.52564 0.54414 0.52551
 Zr1105 Zr 0.48810 1.01645 0.51960
 O1106 O 0.47396 1.00767 0.53771
 O1107 O 0.48844 1.04072 0.52428
 O1108 O 0.49925 1.01908 0.54099
 O1109 O 0.45766 1.01759 0.49342
 O1110 O 0.52406 1.00934 0.53694
 O1111 O 0.46433 1.02399 0.51778
 O1112 O 0.50434 1.05090 0.50567
 O1113 O 0.51141 1.02259 0.51408
 O1114 O 0.48749 1.02621 0.49767
 O1115 O 0.50110 0.99525 0.52104
 O1116 O 0.47787 0.99896 0.50566
 Zr1117 Zr 0.51460 0.99349 0.47832
 Zr1118 Zr 0.52409 1.00129 0.51433
 Zr1119 Zr 0.47858 1.00864 0.48361
 Zr1120 Zr 0.51071 1.03148 0.49188
 O1121 O 0.45966 0.99310 0.47898
 O1122 O 0.53200 1.04203 0.49933
 O1123 O 0.50154 1.01474 0.47665
 O1124 O 0.52458 1.01093 0.49232
 O1125 O 0.51531 0.98355 0.50019
 O1126 O 0.49133 0.98752 0.48399
 C1127 C 0.49548 1.05229 0.51757
 C1128 C 0.45441 1.02329 0.50667
 C1129 C 0.51335 1.01561 0.54546
 O1130 O 0.54414 1.01582 0.51726
 O1131 O 0.54403 0.98965 0.50535
 O1132 O 0.53771 0.98423 0.48070
 C1133 C 0.54719 0.98375 0.49217
 O1134 O 0.47602 0.97461 0.52444
 Zr1135 Zr 0.49199 0.97845 0.50603
 O1136 O 0.51439 0.96922 0.47367
 O1137 O 0.53035 0.98249 0.52914
 O1138 O 0.50307 0.96259 0.52147
 O1139 O 0.47173 0.96640 0.49803
 O1140 O 0.50025 0.95884 0.49347
 C1141 C 0.50863 0.95751 0.48125
 O1142 O 0.52974 1.00211 0.46091
 O1143 O 0.47105 1.02828 0.47044
 O1144 O 0.50402 0.99235 0.45652
 O1145 O 0.47967 1.00331 0.46027
 O1146 O 0.49953 1.04847 0.47768
 O1147 O 0.52457 1.03574 0.47202
 C1148 C 0.49038 0.99705 0.45173
 H1149 H 0.48083 1.03582 0.49694
 H1150 H 0.53551 1.01342 0.48904
 H1151 H 0.48671 0.97975 0.47688
 H1152 H 0.50086 0.99091 0.53154
 H1153 H 0.53135 1.05347 0.49690
 H1154 H 0.55104 1.01040 0.52475
 H1155 H 0.54083 0.98510 0.53344
 H1156 H 0.49809 0.95210 0.52018
 H1157 H 0.50502 1.05869 0.47915
 H1158 H 0.46067 1.02546 0.46603
 H1159 H 0.45267 0.99863 0.47163
 H1160 H 0.47291 0.95512 0.50092
 H1161 H 0.52832 1.04682 0.47205
 H1162 H 0.53284 0.99293 0.45454
 H1163 H 0.47071 1.01687 0.54399
 H1164 H 0.47434 0.96311 0.52585
 Zr1165 Zr -0.01320 0.51240 1.02208
 O1166 O -0.02766 0.50160 1.03889
 O1167 O -0.01317 0.53601 1.02917
 O1168 O -0.00255 0.51321 1.04385
 O1169 O -0.04294 0.51600 0.99537
 O1170 O 0.02240 0.50400 1.03951
 O1171 O -0.03697 0.52003 1.02038
 O1172 O 0.00324 0.54813 1.01212
 O1173 O 0.01016 0.51924 1.01772
 O1174 O -0.01335 0.52438 1.00118
 O1175 O -0.00001 0.49128 1.02185
 O1176 O -0.02288 0.49635 1.00628
 Zr1177 Zr 0.01459 0.49403 0.97948
 Zr1178 Zr 0.02306 0.49816 1.01629
 Zr1179 Zr -0.02170 0.50826 0.98528
 Zr1180 Zr 0.00995 0.53039 0.99648
 O1181 O -0.04030 0.49313 0.97869
 O1182 O 0.03102 0.54027 1.00524
 O1183 O 0.00136 0.51523 0.97950
 O1184 O 0.02402 0.51001 0.99532
 O1185 O 0.01485 0.48190 1.00032
 O1186 O -0.00873 0.48730 0.98397
 C1187 C -0.00589 0.54820 1.02391
 C1188 C -0.04658 0.52038 1.00899
 C1189 C 0.01150 0.50951 1.04830
 O1190 O 0.04292 0.51242 1.02106
 O1191 O 0.04333 0.48763 1.00676
 O1192 O 0.03776 0.48480 0.98152
 C1193 C 0.04691 0.48319 0.99315
 O1194 O -0.02507 0.47023 1.02251
 Zr1195 Zr -0.00854 0.47602 1.00507
 O1196 O 0.01497 0.47035 0.97264
 O1197 O 0.02910 0.47800 1.02944
 O1198 O 0.00218 0.45881 1.01935
 O1199 O -0.02830 0.46459 0.99530
 O1200 O 0.00053 0.45786 0.99105
 C1201 C 0.00935 0.45786 0.97904
 O1202 O 0.02998 0.50458 0.96331
 O1203 O -0.02913 0.52909 0.97388
 O1204 O 0.00452 0.49480 0.95743
 O1205 O -0.01990 0.50545 0.96157
 O1206 O -0.00115 0.54874 0.98388
 O1207 O 0.02410 0.53679 0.97737
 C1208 C -0.00899 0.50000 0.95276
 H1209 H -0.02007 0.53398 1.00123
 H1210 H 0.03500 0.51291 0.99255
 H1211 H -0.01305 0.48024 0.97604
 H1212 H -0.00047 0.48592 1.03190
 H1213 H 0.03030 0.55189 1.00391
 H1214 H 0.04967 0.50630 1.02817
 H1215 H 0.03943 0.48024 1.03424
 H1216 H -0.00262 0.44845 1.01693
 H1217 H 0.00420 0.55878 0.98650
 H1218 H -0.03934 0.52665 0.96895
 H1219 H -0.04714 0.49932 0.97171
 H1220 H -0.02702 0.45308 0.99714
 H1221 H 0.02767 0.54787 0.97849
 H1222 H 0.03338 0.49613 0.95618
 H1223 H -0.03117 0.51006 1.04596
 H1224 H -0.02669 0.45864 1.02276
 Zr1225 Zr -0.01421 0.48637 0.47996
 O1226 O -0.02837 0.49621 0.46247
 O1227 O -0.01436 0.46234 0.47441
 O1228 O -0.00332 0.48407 0.45831
 O1229 O -0.04434 0.48495 0.50672
 O1230 O 0.02170 0.49308 0.46217
 O1231 O -0.03805 0.47922 0.48204
 O1232 O 0.00161 0.45106 0.49229
 O1233 O 0.00903 0.47946 0.48481
 O1234 O -0.01474 0.47583 0.50156
 O1235 O -0.00082 0.50726 0.47893
 O1236 O -0.02397 0.50358 0.49467
 Zr1237 Zr 0.01316 0.50713 0.52143
 Zr1238 Zr 0.02212 0.50042 0.48500
 Zr1239 Zr -0.02318 0.49310 0.51637
 Zr1240 Zr 0.00842 0.46977 0.50670
 O1241 O -0.04174 0.50893 0.52185
 O1242 O 0.02945 0.45898 0.49853
 O1243 O -0.00026 0.48616 0.52266
 O1244 O 0.02268 0.48998 0.50666
 O1245 O 0.01381 0.51782 0.49988
 O1246 O -0.01003 0.51390 0.51643
 C1247 C -0.00738 0.45037 0.48050
 C1248 C -0.04781 0.47973 0.49338
 C1249 C 0.01082 0.48727 0.45369
 O1250 O 0.04191 0.48556 0.48123
 O1251 O 0.04234 0.51133 0.49394
 O1252 O 0.03640 0.51591 0.51891
 C1253 C 0.04573 0.51665 0.50726
 O1254 O -0.02568 0.52856 0.47682
 Zr1255 Zr -0.00946 0.52372 0.49468
 O1256 O 0.01358 0.53123 0.52682
 O1257 O 0.02853 0.51955 0.47064
 O1258 O 0.00164 0.53980 0.47944
 O1259 O -0.02927 0.53609 0.50359
 O1260 O -0.00048 0.54263 0.50758
 C1261 C 0.00811 0.54333 0.51963
 O1262 O 0.02832 0.49750 0.53824
 O1263 O -0.03094 0.47322 0.52907
 O1264 O 0.00288 0.50777 0.54347
 O1265 O -0.02171 0.49757 0.53984
 O1266 O -0.00295 0.45252 0.52048
 O1267 O 0.02237 0.46444 0.52615
 C1268 C -0.01079 0.50324 0.54836
 H1269 H -0.02156 0.46635 0.50210
 H1270 H 0.03359 0.48711 0.50965
 H1271 H -0.01440 0.52153 0.52389
 H1272 H -0.00110 0.51196 0.46858
 H1273 H 0.02860 0.44748 0.50058
 H1274 H 0.04882 0.49108 0.47379
 H1275 H 0.03891 0.51684 0.46605
 H1276 H -0.00312 0.55037 0.48118
 H1277 H 0.00232 0.44223 0.51852
 H1278 H -0.04119 0.47615 0.53380
 H1279 H -0.04874 0.50335 0.52917
 H1280 H -0.02788 0.54742 0.50100
 H1281 H 0.02588 0.45327 0.52570
 H1282 H 0.03169 0.50636 0.54484
 H1283 H -0.03187 0.48734 0.45593
 H1284 H -0.02716 0.54014 0.47580
 Zr1285 Zr 0.48408 -0.01107 -0.02242
 O1286 O 0.47013 -0.00138 -0.04015
 O1287 O 0.48398 -0.03515 -0.02776
 O1288 O 0.49523 -0.01359 -0.04393
 O1289 O 0.45362 -0.01223 0.00399
 O1290 O 0.52022 -0.00458 -0.03986
 O1291 O 0.46023 -0.01823 -0.02055
 O1292 O 0.49966 -0.04628 -0.00956
 O1293 O 0.50724 -0.01798 -0.01722
 O1294 O 0.48325 -0.02137 -0.00072
 O1295 O 0.49753 0.00978 -0.02350
 O1296 O 0.47416 0.00631 -0.00800
 Zr1297 Zr 0.51096 0.01009 0.01916
 Zr1298 Zr 0.52037 0.00295 -0.01709
 Zr1299 Zr 0.47465 -0.00392 0.01382
 Zr1300 Zr 0.50632 -0.02743 0.00475
 O1301 O 0.45602 0.01200 0.01885
 O1302 O 0.52744 -0.03835 -0.00303
 O1303 O 0.49747 -0.01084 0.02044
 O1304 O 0.52062 -0.00726 0.00469
 O1305 O 0.51192 0.02054 -0.00248
 O1306 O 0.48785 0.01685 0.01382
 C1307 C 0.49084 -0.04707 -0.02146
 C1308 C 0.45033 -0.01764 -0.00933
 C1309 C 0.50943 -0.01044 -0.04843
 O1310 O 0.54013 -0.01203 -0.02051
 O1311 O 0.54054 0.01381 -0.00799
 O1312 O 0.53429 0.01870 0.01686
 C1313 C 0.54380 0.01923 0.00532
 O1314 O 0.47273 0.03108 -0.02612
 Zr1315 Zr 0.48872 0.02642 -0.00803
 O1316 O 0.51139 0.03426 0.02428
 O1317 O 0.52704 0.02194 -0.03150
 O1318 O 0.50002 0.04231 -0.02331
 O1319 O 0.46884 0.03894 0.00054
 O1320 O 0.49759 0.04547 0.00476
 C1321 C 0.50606 0.04630 0.01688
 O1322 O 0.52585 0.00062 0.03628
 O1323 O 0.46672 -0.02363 0.02667
 O1324 O 0.50039 0.01098 0.04107
 O1325 O 0.47579 0.00086 0.03725
 O1326 O 0.49474 -0.04452 0.01856
 O1327 O 0.51998 -0.03257 0.02445
 C1328 C 0.48663 0.00657 0.04585
 H1329 H 0.47642 -0.03084 -0.00016
 H1330 H 0.53148 -0.01013 0.00783
 H1331 H 0.48340 0.02458 0.02114
 H1332 H 0.49739 0.01437 -0.03390
 H1333 H 0.52653 -0.04983 -0.00089
 H1334 H 0.54716 -0.00660 -0.02792
 H1335 H 0.53746 0.01915 -0.03595
 H1336 H 0.49525 0.05291 -0.02175
 H1337 H 0.50002 -0.05483 0.01677
 H1338 H 0.45639 -0.02064 0.03121
 H1339 H 0.44891 0.00651 0.02614
 H1340 H 0.47029 0.05024 -0.00217
 H1341 H 0.52350 -0.04375 0.02414
 H1342 H 0.52915 0.00956 0.04283
 H1343 H 0.46671 -0.01031 -0.04665
 H1344 H 0.47126 0.04264 -0.02726
 Zr1345 Zr 0.51332 0.51119 -0.02151
 O1346 O 0.52755 0.50198 -0.03933
 O1347 O 0.51294 0.53536 -0.02682
 O1348 O 0.50227 0.51369 -0.04298
 O1349 O 0.54365 0.51245 0.00473
 O1350 O 0.47739 0.50428 -0.03882
 O1351 O 0.53705 0.51871 -0.01974
 O1352 O 0.49696 0.54594 -0.00850
 O1353 O 0.49003 0.51766 -0.01617
 O1354 O 0.51390 0.52125 0.00020
 O1355 O 0.50021 0.49013 -0.02258
 O1356 O 0.52343 0.49376 -0.00721
 Zr1357 Zr 0.48658 0.48912 0.02014
 Zr1358 Zr 0.47724 0.49653 -0.01605
 Zr1359 Zr 0.52270 0.50374 0.01463
 Zr1360 Zr 0.49069 0.52685 0.00583
 O1361 O 0.54156 0.48806 0.01951
 O1362 O 0.46940 0.53753 -0.00169
 O1363 O 0.49976 0.51022 0.02142
 O1364 O 0.47672 0.50647 0.00576
 O1365 O 0.48588 0.47890 -0.00153
 O1366 O 0.50982 0.48277 0.01466
 C1367 C 0.50576 0.54705 -0.02048
 C1368 C 0.54692 0.51807 -0.00858
 C1369 C 0.48815 0.51035 -0.04743
 O1370 O 0.45729 0.51126 -0.01937
 O1371 O 0.45721 0.48525 -0.00690
 O1372 O 0.46340 0.48015 0.01791
 C1373 C 0.45396 0.47961 0.00641
 O1374 O 0.52531 0.46918 -0.02538
 Zr1375 Zr 0.50918 0.47342 -0.00720
 O1376 O 0.48649 0.46492 0.02519
 O1377 O 0.47092 0.47760 -0.03048
 O1378 O 0.49819 0.45754 -0.02247
 O1379 O 0.52922 0.46114 0.00126
 O1380 O 0.50052 0.45407 0.00559
 C1381 C 0.49201 0.45303 0.01777
 O1382 O 0.47149 0.49817 0.03736
 O1383 O 0.53027 0.52342 0.02750
 O1384 O 0.49711 0.48808 0.04199
 O1385 O 0.52156 0.49861 0.03804
 O1386 O 0.50201 0.54398 0.01956
 O1387 O 0.47694 0.53150 0.02566
 C1388 C 0.51080 0.49260 0.04668
 H1389 H 0.52056 0.53082 0.00074
 H1390 H 0.46580 0.50913 0.00896
 H1391 H 0.51435 0.47502 0.02193
 H1392 H 0.50048 0.48565 -0.03299
 H1393 H 0.47010 0.54899 0.00053
 H1394 H 0.45036 0.50580 -0.02674
 H1395 H 0.46048 0.48028 -0.03488
 H1396 H 0.50310 0.44700 -0.02095
 H1397 H 0.49657 0.55422 0.01783
 H1398 H 0.54061 0.52053 0.03200
 H1399 H 0.54855 0.49356 0.02679
 H1400 H 0.52795 0.44984 -0.00142
 H1401 H 0.47333 0.54265 0.02548
 H1402 H 0.46829 0.48911 0.04390
 H1403 H 0.53083 0.51104 -0.04582
 H1404 H 0.52699 0.45765 -0.02652
 Zr1405 Zr 0.01267 1.01185 0.47948
 O1406 O 0.02697 1.00292 0.46160
 O1407 O 0.01199 1.03602 0.47430
 O1408 O 0.00156 1.01433 0.45804
 O1409 O 0.04302 1.01335 0.50571
 O1410 O -0.02318 1.00457 0.46216
 O1411 O 0.03633 1.01960 0.48126
 O1412 O -0.00414 1.04636 0.49263
 O1413 O -0.01069 1.01801 0.48487
 O1414 O 0.01315 1.02183 0.50124
 O1415 O -0.00018 0.99065 0.47832
 O1416 O 0.02302 0.99451 0.49371
 Zr1417 Zr -0.01374 0.98923 0.52105
 Zr1418 Zr -0.02322 0.99672 0.48490
 Zr1419 Zr 0.02217 1.00438 0.51560
 Zr1420 Zr -0.01012 1.02711 0.50691
 O1421 O 0.04122 0.98891 0.52046
 O1422 O -0.03157 1.03753 0.49947
 O1423 O -0.00085 1.01051 0.52242
 O1424 O -0.02383 1.00654 0.50676
 O1425 O -0.01433 0.97912 0.49933
 O1426 O 0.00958 0.98323 0.51552
 C1427 C 0.00465 1.04761 0.48066
 C1428 C 0.04623 1.01902 0.49240
 C1429 C -0.01250 1.01083 0.45358
 O1430 O -0.04335 1.01123 0.48166
 O1431 O -0.04312 0.98519 0.49404
 O1432 O -0.03683 0.98005 0.51882
 C1433 C -0.04629 0.97948 0.50734
 O1434 O 0.02521 0.97010 0.47539
 Zr1435 Zr 0.00904 0.97400 0.49361
 O1436 O -0.01350 0.96497 0.52599
 O1437 O -0.02933 0.97776 0.47042
 O1438 O -0.00179 0.95806 0.47828
 O1439 O 0.02924 0.96190 0.50193
 O1440 O 0.00070 0.95450 0.50632
 C1441 C -0.00776 0.95322 0.51850
 O1442 O -0.02891 0.99799 0.53835
 O1443 O 0.02950 1.02411 0.52851
 O1444 O -0.00317 0.98819 0.54287
 O1445 O 0.02109 0.99918 0.53900
 O1446 O 0.00099 1.04434 0.52068
 O1447 O -0.02388 1.03149 0.52679
 C1448 C 0.01043 0.99294 0.54761
 H1449 H 0.01970 1.03148 0.50180
 H1450 H -0.03477 1.00906 0.50999
 H1451 H 0.01422 0.97550 0.52275
 H1452 H 0.00013 0.98623 0.46789
 H1453 H -0.03102 1.04899 0.50174
 H1454 H -0.05020 1.00573 0.47426
 H1455 H -0.03980 0.98035 0.46603
 H1456 H 0.00326 0.94757 0.47974
 H1457 H -0.00461 1.05451 0.51901
 H1458 H 0.03989 1.02135 0.53299
 H1459 H 0.04815 0.99449 0.52774
 H1460 H 0.02813 0.95062 0.49914
 H1461 H -0.02766 1.04258 0.52666
 H1462 H -0.03198 0.98885 0.54485
 H1463 H 0.03014 1.01206 0.45515
 H1464 H 0.02695 0.95859 0.47411
 Zr1465 Zr 0.73894 0.26296 0.22836
 O1466 O 0.74719 0.27723 0.21011
 O1467 O 0.71467 0.26205 0.22397
 O1468 O 0.73605 0.25169 0.20706
 O1469 O 0.73765 0.29347 0.25448
 O1470 O 0.74636 0.22707 0.21095
 O1471 O 0.73092 0.28658 0.23027
 O1472 O 0.70509 0.24590 0.24269
 O1473 O 0.73331 0.23954 0.23403
 O1474 O 0.72952 0.26346 0.25042
 O1475 O 0.76030 0.25030 0.22658
 O1476 O 0.75646 0.27355 0.24198
 Zr1477 Zr 0.76298 0.23693 0.26929
 Zr1478 Zr 0.75477 0.22721 0.23344
 Zr1479 Zr 0.74717 0.27273 0.26418
 Zr1480 Zr 0.72476 0.24015 0.25635
 O1481 O 0.76245 0.29195 0.26847
 O1482 O 0.71450 0.21855 0.24932
 O1483 O 0.74157 0.24966 0.27127
 O1484 O 0.74551 0.22661 0.25559
 O1485 O 0.77257 0.23633 0.24727
 O1486 O 0.76848 0.26030 0.26350
 C1487 C 0.70339 0.25463 0.23074
 C1488 C 0.73162 0.29656 0.24134
 C1489 C 0.73968 0.23763 0.20255
 O1490 O 0.74053 0.20691 0.23070
 O1491 O 0.76679 0.20742 0.24228
 O1492 O 0.77239 0.21386 0.26687
 C1493 C 0.77281 0.20434 0.25542
 O1494 O 0.78038 0.27585 0.22289
 Zr1495 Zr 0.77717 0.25975 0.24131
 O1496 O 0.78732 0.23748 0.27348
 O1497 O 0.77345 0.22122 0.21839
 O1498 O 0.79289 0.24897 0.22555
 O1499 O 0.78908 0.28016 0.24917
 O1500 O 0.79709 0.25170 0.25345
 C1501 C 0.79879 0.24331 0.26562
 O1502 O 0.75498 0.22170 0.28691
 O1503 O 0.72767 0.27997 0.27767
 O1504 O 0.76415 0.24756 0.29108
 O1505 O 0.75293 0.27183 0.28740
 O1506 O 0.70774 0.25117 0.27063
 O1507 O 0.72112 0.22643 0.27642
 C1508 C 0.75936 0.26117 0.29588
 H1509 H 0.71980 0.26994 0.25127
 H1510 H 0.74323 0.21565 0.25894
 H1511 H 0.77628 0.26506 0.27048
 H1512 H 0.76445 0.25060 0.21601
 H1513 H 0.70311 0.21900 0.25197
 H1514 H 0.74596 0.20007 0.22316
 H1515 H 0.77094 0.21069 0.21411
 H1516 H 0.80332 0.25413 0.22665
 H1517 H 0.69763 0.24545 0.26933
 H1518 H 0.73038 0.29041 0.28201
 H1519 H 0.75694 0.29889 0.27587
 H1520 H 0.80031 0.27915 0.24604
 H1521 H 0.71011 0.22252 0.27665
 H1522 H 0.76432 0.21877 0.29313
 H1523 H 0.73786 0.28030 0.20396
 H1524 H 0.79181 0.27772 0.22127
 Zr1525 Zr 0.76347 0.73652 0.73111
 O1526 O 0.75359 0.72220 0.71387
 O1527 O 0.78742 0.73644 0.72509
 O1528 O 0.76546 0.74727 0.70935
 O1529 O 0.76515 0.70649 0.75798
 O1530 O 0.75655 0.77241 0.71331
 O1531 O 0.77076 0.71264 0.73321
 O1532 O 0.79870 0.75255 0.74271
 O1533 O 0.77031 0.75978 0.73579
 O1534 O 0.77417 0.73606 0.75254
 O1535 O 0.74254 0.74999 0.73035
 O1536 O 0.74641 0.72688 0.74613
 Zr1537 Zr 0.74293 0.76419 0.77279
 Zr1538 Zr 0.74934 0.77295 0.73623
 Zr1539 Zr 0.75704 0.72775 0.76767
 Zr1540 Zr 0.78015 0.75926 0.75752
 O1541 O 0.74135 0.70921 0.77347
 O1542 O 0.79076 0.78034 0.74929
 O1543 O 0.76393 0.75069 0.77377
 O1544 O 0.75992 0.77359 0.75773
 O1545 O 0.73210 0.76477 0.75140
 O1546 O 0.73620 0.74097 0.76798
 C1547 C 0.79935 0.74358 0.73088
 C1548 C 0.77031 0.70292 0.74460
 C1549 C 0.76224 0.76144 0.70475
 O1550 O 0.76410 0.79270 0.73217
 O1551 O 0.73843 0.79326 0.74525
 O1552 O 0.73405 0.78747 0.77032
 C1553 C 0.73319 0.79675 0.75863
 O1554 O 0.72136 0.72511 0.72870
 Zr1555 Zr 0.72623 0.74147 0.74638
 O1556 O 0.71891 0.76479 0.77849
 O1557 O 0.73013 0.77936 0.72212
 O1558 O 0.71004 0.75249 0.73128
 O1559 O 0.71396 0.72178 0.75561
 O1560 O 0.70738 0.75071 0.75947
 C1561 C 0.70677 0.75942 0.77147
 O1562 O 0.75267 0.77934 0.78942
 O1563 O 0.77703 0.72003 0.78008
 O1564 O 0.74227 0.75392 0.79485
 O1565 O 0.75268 0.72932 0.79118
 O1566 O 0.79760 0.74781 0.77093
 O1567 O 0.78555 0.77316 0.77694
 C1568 C 0.74689 0.74024 0.79974
 H1569 H 0.78368 0.72924 0.75294
 H1570 H 0.76277 0.78452 0.76064
 H1571 H 0.72863 0.73666 0.77555
 H1572 H 0.73777 0.74966 0.72007
 H1573 H 0.80227 0.77948 0.75118
 H1574 H 0.75851 0.79960 0.72479
 H1575 H 0.73278 0.78971 0.71743
 H1576 H 0.69951 0.74777 0.73319
 H1577 H 0.80782 0.75309 0.76878
 H1578 H 0.77420 0.70979 0.78489
 H1579 H 0.74702 0.70223 0.78073
 H1580 H 0.70262 0.72322 0.75319
 H1581 H 0.79671 0.77660 0.77636
 H1582 H 0.74386 0.78279 0.79614
 H1583 H 0.76242 0.71867 0.70721
 H1584 H 0.70979 0.72361 0.72789
 Zr1585 Zr 0.23718 0.23537 0.77254
 O1586 O 0.24597 0.22100 0.79044
 O1587 O 0.21302 0.23613 0.77765
 O1588 O 0.23469 0.24653 0.79397
 O1589 O 0.23548 0.20507 0.74623
 O1590 O 0.24470 0.27120 0.78987
 O1591 O 0.22929 0.21174 0.77071
 O1592 O 0.20283 0.25233 0.75931
 O1593 O 0.23126 0.25883 0.76720
 O1594 O 0.22724 0.23503 0.75077
 O1595 O 0.25849 0.24803 0.77373
 O1596 O 0.25442 0.22489 0.75828
 Zr1597 Zr 0.26009 0.26169 0.73102
 Zr1598 Zr 0.25266 0.27116 0.76717
 Zr1599 Zr 0.24459 0.22588 0.73639
 Zr1600 Zr 0.22218 0.25838 0.74516
 O1601 O 0.25984 0.20667 0.73146
 O1602 O 0.21191 0.27985 0.75282
 O1603 O 0.23870 0.24900 0.72963
 O1604 O 0.24287 0.27190 0.74533
 O1605 O 0.27019 0.26214 0.75274
 O1606 O 0.26583 0.23827 0.73651
 C1607 C 0.20148 0.24345 0.77121
 C1608 C 0.22980 0.20187 0.75953
 C1609 C 0.23828 0.26059 0.79842
 O1610 O 0.23841 0.29149 0.77039
 O1611 O 0.26444 0.29097 0.75812
 O1612 O 0.26956 0.28469 0.73334
 C1613 C 0.27021 0.29412 0.74485
 O1614 O 0.27886 0.22259 0.77673
 Zr1615 Zr 0.27506 0.23867 0.75842
 O1616 O 0.28431 0.26104 0.72600
 O1617 O 0.27159 0.27703 0.78176
 O1618 O 0.29112 0.24951 0.77360
 O1619 O 0.28679 0.21819 0.75021
 O1620 O 0.29463 0.24654 0.74554
 C1621 C 0.29598 0.25496 0.73334
 O1622 O 0.25154 0.27706 0.71380
 O1623 O 0.22481 0.21878 0.72346
 O1624 O 0.26095 0.25118 0.70916
 O1625 O 0.24982 0.22696 0.71300
 O1626 O 0.20502 0.24746 0.73118
 O1627 O 0.21786 0.27243 0.72545
 C1628 C 0.25612 0.23760 0.70441
 H1629 H 0.21756 0.22854 0.75016
 H1630 H 0.24047 0.28289 0.74213
 H1631 H 0.27348 0.23352 0.72927
 H1632 H 0.26288 0.24767 0.78416
 H1633 H 0.20046 0.27939 0.75059
 H1634 H 0.24395 0.29827 0.77784
 H1635 H 0.26912 0.28754 0.78614
 H1636 H 0.30155 0.24436 0.77214
 H1637 H 0.19484 0.25302 0.73291
 H1638 H 0.22747 0.20837 0.71896
 H1639 H 0.25419 0.19980 0.72418
 H1640 H 0.29809 0.21913 0.75297
 H1641 H 0.20677 0.27621 0.72561
 H1642 H 0.26070 0.28003 0.70730
 H1643 H 0.23680 0.21788 0.79686
 H1644 H 0.29034 0.22079 0.77802
 Zr1645 Zr 0.26000 0.76291 0.27173
 O1646 O 0.25138 0.77693 0.28993
 O1647 O 0.28429 0.76237 0.27619
 O1648 O 0.26297 0.75153 0.29307
 O1649 O 0.26072 0.79366 0.24559
 O1650 O 0.25331 0.72675 0.28911
 O1651 O 0.26754 0.78667 0.26983
 O1652 O 0.29429 0.74660 0.25744
 O1653 O 0.26617 0.73964 0.26609
 O1654 O 0.26947 0.76374 0.24970
 O1655 O 0.23891 0.74991 0.27342
 O1656 O 0.24229 0.77333 0.25804
 Zr1657 Zr 0.23670 0.73687 0.23070
 Zr1658 Zr 0.24498 0.72697 0.26660
 Zr1659 Zr 0.25168 0.77287 0.23588
 Zr1660 Zr 0.27477 0.74056 0.24379
 O1661 O 0.23599 0.79189 0.23157
 O1662 O 0.28549 0.71910 0.25095
 O1663 O 0.25782 0.74995 0.22880
 O1664 O 0.25434 0.72670 0.24447
 O1665 O 0.22704 0.73592 0.25269
 O1666 O 0.23065 0.76010 0.23648
 C1667 C 0.29577 0.75527 0.26938
 C1668 C 0.26667 0.79672 0.25874
 C1669 C 0.25965 0.73736 0.29756
 O1670 O 0.25965 0.70685 0.26935
 O1671 O 0.23337 0.70710 0.25772
 O1672 O 0.22769 0.71368 0.23312
 C1673 C 0.22740 0.70407 0.24458
 O1674 O 0.21820 0.77505 0.27706
 Zr1675 Zr 0.22188 0.75920 0.25863
 O1676 O 0.21239 0.73708 0.22641
 O1677 O 0.22641 0.72055 0.28161
 O1678 O 0.20634 0.74798 0.27430
 O1679 O 0.20956 0.77952 0.25076
 O1680 O 0.20216 0.75098 0.24637
 C1681 C 0.20074 0.74267 0.23418
 O1682 O 0.24514 0.72192 0.21314
 O1683 O 0.27105 0.78052 0.22243
 O1684 O 0.23529 0.74769 0.20893
 O1685 O 0.24600 0.77208 0.21263
 O1686 O 0.29160 0.75191 0.22952
 O1687 O 0.27879 0.72704 0.22376
 C1688 C 0.23978 0.76142 0.20413
 H1689 H 0.27905 0.77038 0.24886
 H1690 H 0.25685 0.71580 0.24114
 H1691 H 0.22277 0.76479 0.22947
 H1692 H 0.23471 0.75005 0.28397
 H1693 H 0.29688 0.71975 0.24835
 H1694 H 0.25435 0.69986 0.27687
 H1695 H 0.22913 0.71002 0.28587
 H1696 H 0.19580 0.75298 0.27316
 H1697 H 0.30182 0.74632 0.23083
 H1698 H 0.26812 0.79096 0.21809
 H1699 H 0.24136 0.79897 0.22417
 H1700 H 0.19834 0.77830 0.25382
 H1701 H 0.28986 0.72321 0.22363
 H1702 H 0.23590 0.71889 0.20688
 H1703 H 0.26062 0.78009 0.29612
 H1704 H 0.20672 0.77670 0.27864
 Zr1705 Zr 0.23971 0.76307 0.72971
 O1706 O 0.24767 0.77722 0.71125
 O1707 O 0.21538 0.76207 0.72565
 O1708 O 0.23661 0.75162 0.70852
 O1709 O 0.23876 0.79384 0.75558
 O1710 O 0.24692 0.72701 0.71253
 O1711 O 0.23167 0.78671 0.73153
 O1712 O 0.20608 0.74613 0.74467
 O1713 O 0.23416 0.73972 0.73568
 O1714 O 0.23062 0.76379 0.75189
 O1715 O 0.26105 0.75040 0.72777
 O1716 O 0.25743 0.77380 0.74300
 Zr1717 Zr 0.26434 0.73745 0.77056
 Zr1718 Zr 0.25562 0.72738 0.73491
 Zr1719 Zr 0.24846 0.77320 0.76533
 Zr1720 Zr 0.22595 0.74054 0.75811
 O1721 O 0.26378 0.79249 0.76920
 O1722 O 0.21557 0.71887 0.75145
 O1723 O 0.24297 0.75021 0.77272
 O1724 O 0.24667 0.72700 0.75719
 O1725 O 0.27361 0.73663 0.74842
 O1726 O 0.26976 0.76077 0.76447
 C1727 C 0.20420 0.75472 0.73265
 C1728 C 0.23252 0.79678 0.74251
 C1729 C 0.24018 0.73751 0.70410
 O1730 O 0.24130 0.70707 0.73254
 O1731 O 0.26772 0.70767 0.74378
 O1732 O 0.27369 0.71433 0.76823
 C1733 C 0.27392 0.70469 0.75686
 O1734 O 0.28108 0.77590 0.72357
 Zr1735 Zr 0.27813 0.75999 0.74218
 O1736 O 0.28874 0.73800 0.77439
 O1737 O 0.27410 0.72122 0.71970
 O1738 O 0.29364 0.74907 0.72631
 O1739 O 0.29014 0.78048 0.74971
 O1740 O 0.29824 0.75205 0.75412
 C1741 C 0.30010 0.74374 0.76632
 O1742 O 0.25658 0.72242 0.78844
 O1743 O 0.22916 0.78054 0.77904
 O1744 O 0.26591 0.74832 0.79221
 O1745 O 0.25461 0.77255 0.78847
 O1746 O 0.20915 0.75175 0.77251
 O1747 O 0.22259 0.72703 0.77835
 C1748 C 0.26120 0.76200 0.79695
 H1749 H 0.22090 0.77027 0.75281
 H1750 H 0.24444 0.71608 0.76067
 H1751 H 0.27767 0.76558 0.77130
 H1752 H 0.26506 0.75060 0.71715
 H1753 H 0.20422 0.71935 0.75426
 H1754 H 0.24662 0.70015 0.72499
 H1755 H 0.27152 0.71066 0.71555
 H1756 H 0.30407 0.75426 0.72722
 H1757 H 0.19901 0.74604 0.77139
 H1758 H 0.23193 0.79104 0.78323
 H1759 H 0.25838 0.79950 0.77662
 H1760 H 0.30132 0.77945 0.74647
 H1761 H 0.21156 0.72318 0.77880
 H1762 H 0.26600 0.71955 0.79456
 H1763 H 0.23824 0.78020 0.70519
 H1764 H 0.29249 0.77781 0.72182
 Zr1765 Zr 0.26210 0.23561 0.22872
 O1766 O 0.25204 0.22174 0.21124
 O1767 O 0.28611 0.23502 0.22292
 O1768 O 0.26453 0.24660 0.20711
 O1769 O 0.26304 0.20522 0.25523
 O1770 O 0.25606 0.27185 0.21127
 O1771 O 0.26893 0.21158 0.23057
 O1772 O 0.29760 0.25060 0.24085
 O1773 O 0.26939 0.25866 0.23370
 O1774 O 0.27260 0.23466 0.25023
 O1775 O 0.24147 0.24951 0.22796
 O1776 O 0.24473 0.22613 0.24349
 Zr1777 Zr 0.24182 0.26316 0.27055
 Zr1778 Zr 0.24870 0.27226 0.23415
 Zr1779 Zr 0.25519 0.22650 0.26511
 Zr1780 Zr 0.27904 0.25766 0.25550
 O1781 O 0.23907 0.20822 0.27052
 O1782 O 0.29016 0.27856 0.24748
 O1783 O 0.26252 0.24921 0.27153
 O1784 O 0.25912 0.27241 0.25573
 O1785 O 0.23116 0.26424 0.24910
 O1786 O 0.23464 0.24015 0.26543
 C1787 C 0.29816 0.24172 0.22895
 C1788 C 0.26827 0.20174 0.24184
 C1789 C 0.26161 0.26088 0.20264
 O1790 O 0.26387 0.29175 0.23043
 O1791 O 0.23810 0.29267 0.24333
 O1792 O 0.23342 0.28663 0.26829
 C1793 C 0.23281 0.29607 0.25671
 O1794 O 0.21977 0.22511 0.22586
 Zr1795 Zr 0.22485 0.24114 0.24376
 O1796 O 0.21778 0.26419 0.27610
 O1797 O 0.22973 0.27924 0.21997
 O1798 O 0.20903 0.25269 0.22867
 O1799 O 0.21210 0.22160 0.25267
 O1800 O 0.20610 0.25060 0.25683
 C1801 C 0.20558 0.25916 0.26894
 O1802 O 0.25175 0.27792 0.28740
 O1803 O 0.27489 0.21819 0.27763
 O1804 O 0.24083 0.25267 0.29248
 O1805 O 0.25067 0.22787 0.28863
 O1806 O 0.29615 0.24577 0.26897
 O1807 O 0.28455 0.27125 0.27510
 C1808 C 0.24510 0.23885 0.29726
 H1809 H 0.28197 0.22763 0.25064
 H1810 H 0.26216 0.28324 0.25878
 H1811 H 0.22692 0.23592 0.27290
 H1812 H 0.23678 0.24942 0.21764
 H1813 H 0.30163 0.27744 0.24944
 H1814 H 0.25848 0.29885 0.22308
 H1815 H 0.23262 0.28960 0.21544
 H1816 H 0.19838 0.24818 0.23046
 H1817 H 0.30648 0.25090 0.26700
 H1818 H 0.27179 0.20795 0.28228
 H1819 H 0.24451 0.20104 0.27776
 H1820 H 0.20081 0.22331 0.25017
 H1821 H 0.29574 0.27459 0.27457
 H1822 H 0.24296 0.28147 0.29411
 H1823 H 0.26084 0.21811 0.20459
 H1824 H 0.20819 0.22388 0.22493
 Zr1825 Zr 0.73922 0.73489 0.27381
 O1826 O 0.74886 0.72084 0.29153
 O1827 O 0.71514 0.73495 0.27942
 O1828 O 0.73676 0.74602 0.29527
 O1829 O 0.73797 0.70445 0.24764
 O1830 O 0.74577 0.77102 0.29091
 O1831 O 0.73193 0.71105 0.27217
 O1832 O 0.70413 0.75077 0.26121
 O1833 O 0.73241 0.75811 0.26851
 O1834 O 0.72890 0.73414 0.25222
 O1835 O 0.76010 0.74828 0.27460
 O1836 O 0.75657 0.72495 0.25931
 Zr1837 Zr 0.76041 0.76181 0.23184
 Zr1838 Zr 0.75335 0.77117 0.26809
 Zr1839 Zr 0.74631 0.72550 0.23760
 Zr1840 Zr 0.72295 0.75727 0.24662
 O1841 O 0.76214 0.70679 0.23257
 O1842 O 0.71216 0.77849 0.25428
 O1843 O 0.73947 0.74836 0.23085
 O1844 O 0.74315 0.77151 0.24641
 O1845 O 0.77089 0.76270 0.25337
 O1846 O 0.76711 0.73864 0.23729
 C1847 C 0.70328 0.74196 0.27321
 C1848 C 0.73253 0.70116 0.26101
 C1849 C 0.73990 0.76022 0.29961
 O1850 O 0.73849 0.79103 0.27149
 O1851 O 0.76431 0.79131 0.25878
 O1852 O 0.76917 0.78511 0.23393
 C1853 C 0.76976 0.79458 0.24541
 O1854 O 0.78141 0.72347 0.27721
 Zr1855 Zr 0.77672 0.73946 0.25902
 O1856 O 0.78452 0.76213 0.22645
 O1857 O 0.77233 0.77773 0.28234
 O1858 O 0.79263 0.75079 0.27403
 O1859 O 0.78911 0.71949 0.25052
 O1860 O 0.79578 0.74825 0.24592
 C1861 C 0.79657 0.75674 0.23370
 O1862 O 0.75099 0.77679 0.21472
 O1863 O 0.72659 0.71766 0.22498
 O1864 O 0.76128 0.75122 0.21000
 O1865 O 0.75112 0.72662 0.21413
 O1866 O 0.70576 0.74575 0.23315
 O1867 O 0.71788 0.77090 0.22682
 C1868 C 0.75687 0.73744 0.20539
 H1869 H 0.71941 0.72735 0.25181
 H1870 H 0.74032 0.78240 0.24322
 H1871 H 0.77480 0.73417 0.22993
 H1872 H 0.76469 0.74810 0.28496
 H1873 H 0.70069 0.77764 0.25223
 H1874 H 0.74394 0.79802 0.27881
 H1875 H 0.76958 0.78816 0.28675
 H1876 H 0.80321 0.74602 0.27239
 H1877 H 0.69550 0.75113 0.23498
 H1878 H 0.72953 0.70732 0.22048
 H1879 H 0.75662 0.69969 0.22539
 H1880 H 0.80041 0.72090 0.25306
 H1881 H 0.70674 0.77451 0.22719
 H1882 H 0.75992 0.78007 0.20806
 H1883 H 0.73994 0.71744 0.29815
 H1884 H 0.79297 0.72201 0.27825
 Zr1885 Zr 0.76079 0.26148 0.76925
 O1886 O 0.75066 0.27627 0.78612
 O1887 O 0.78447 0.26063 0.77602
 O1888 O 0.76161 0.25077 0.79109
 O1889 O 0.76480 0.29117 0.74227
 O1890 O 0.75159 0.22615 0.78710
 O1891 O 0.76893 0.28504 0.76729
 O1892 O 0.79588 0.24377 0.75899
 O1893 O 0.76689 0.23788 0.76501
 O1894 O 0.77250 0.26124 0.74822
 O1895 O 0.73931 0.24903 0.76939
 O1896 O 0.74485 0.27173 0.75357
 Zr1897 Zr 0.74111 0.23434 0.72711
 Zr1898 Zr 0.74545 0.22571 0.76395
 Zr1899 Zr 0.75644 0.27015 0.73245
 Zr1900 Zr 0.77777 0.23772 0.74364
 O1901 O 0.74179 0.28928 0.72582
 O1902 O 0.78716 0.21629 0.75246
 O1903 O 0.76267 0.24684 0.72677
 O1904 O 0.75700 0.22435 0.74284
 O1905 O 0.72924 0.23449 0.74809
 O1906 O 0.73513 0.25792 0.73149
 C1907 C 0.79636 0.25289 0.77070
 C1908 C 0.76935 0.29467 0.75583
 C1909 C 0.75755 0.23685 0.79571
 O1910 O 0.75918 0.20535 0.76874
 O1911 O 0.73429 0.20578 0.75471
 O1912 O 0.73131 0.21146 0.72946
 C1913 C 0.72963 0.20233 0.74118
 O1914 O 0.71895 0.27472 0.77017
 Zr1915 Zr 0.72412 0.25810 0.75271
 O1916 O 0.71739 0.23491 0.72048
 O1917 O 0.72531 0.22037 0.77738
 O1918 O 0.70678 0.24782 0.76717
 O1919 O 0.71324 0.27840 0.74304
 O1920 O 0.70558 0.24990 0.73884
 C1921 C 0.70517 0.24113 0.72687
 O1922 O 0.75096 0.21857 0.71095
 O1923 O 0.77734 0.27688 0.72079
 O1924 O 0.74198 0.24439 0.70497
 O1925 O 0.75333 0.26846 0.70879
 O1926 O 0.79622 0.24821 0.73070
 O1927 O 0.78351 0.22331 0.72459
 C1928 C 0.74750 0.25773 0.70013
 H1929 H 0.78227 0.26765 0.74811
 H1930 H 0.75956 0.21328 0.74015
 H1931 H 0.72814 0.26252 0.72361
 H1932 H 0.73411 0.24967 0.77950
 H1933 H 0.79876 0.21660 0.75096
 H1934 H 0.75297 0.19880 0.77597
 H1935 H 0.72731 0.20995 0.78224
 H1936 H 0.69653 0.25298 0.76482
 H1937 H 0.80613 0.24254 0.73325
 H1938 H 0.77513 0.28718 0.71579
 H1939 H 0.74810 0.29592 0.71873
 H1940 H 0.70173 0.27755 0.74501
 H1941 H 0.79451 0.21943 0.72557
 H1942 H 0.74234 0.21549 0.70395
 H1943 H 0.75930 0.27948 0.79305
 H1944 H 0.70741 0.27667 0.77057
 C1945 C 0.44561 0.98072 0.32559
 C1946 C 0.44864 0.99452 0.33381
 C1947 C 0.44289 1.00906 0.32847
 C1948 C 0.43393 1.00977 0.31511
 C1949 C 0.43053 0.99592 0.30693
 C1950 C 0.43664 0.98140 0.31224
 C1951 C 0.45678 0.99367 0.34820
 C1952 C 0.46300 0.99309 0.36055
 C1953 C 0.46948 0.99267 0.37537
 C1954 C 0.47417 0.99266 0.38835
 C1955 C 0.47854 0.99318 0.40421
 C1956 C 0.46727 0.99813 0.41486
 C1957 C 0.47114 0.99917 0.43025
 C1958 C 0.48643 0.99527 0.43534
 C1959 C 0.49771 0.99008 0.42458
 C1960 C 0.49377 0.98907 0.40908
 H1961 H 0.44996 0.96939 0.32962
 H1962 H 0.44505 1.01981 0.33480
 H1963 H 0.42926 1.02110 0.31145
 H1964 H 0.43445 0.97056 0.30609
 H1965 H 0.45544 1.00132 0.41125
 H1966 H 0.46210 1.00315 0.43814
 H1967 H 0.50957 0.98700 0.42810
 H1968 H 0.50260 0.98521 0.40092
 C1969 C -0.05781 0.48440 0.82937
 C1970 C -0.05203 0.49852 0.83532
 C1971 C -0.05536 0.51279 0.82790
 C1972 C -0.06460 0.51300 0.81471
 C1973 C -0.07090 0.49886 0.80866
 C1974 C -0.06709 0.48452 0.81623
 C1975 C -0.04350 0.49839 0.84951
 C1976 C -0.03695 0.49824 0.86170
 C1977 C -0.03009 0.49816 0.87636
 C1978 C -0.02511 0.49832 0.88923
 C1979 C -0.02043 0.49894 0.90500
 C1980 C -0.03052 0.50630 0.91545
 C1981 C -0.02666 0.50669 0.93087
 C1982 C -0.01258 0.49971 0.93620
 C1983 C -0.00237 0.49244 0.92559
 C1984 C -0.00630 0.49204 0.91006
 H1985 H -0.05525 0.47324 0.83497
 H1986 H -0.05109 0.52385 0.83251
 H1987 H -0.06738 0.52444 0.80984
 H1988 H -0.07081 0.47319 0.81189
 H1989 H -0.04148 0.51166 0.91169
 H1990 H -0.03482 0.51245 0.93862
 H1991 H 0.00854 0.48695 0.92930
 H1992 H 0.00159 0.48627 0.90206
 C1993 C 0.04901 0.00030 0.82550
 C1994 C 0.05463 0.01087 0.83646
 C1995 C 0.06869 0.01909 0.83375
 C1996 C 0.07718 0.01670 0.82025
 C1997 C 0.07174 0.00599 0.80922
 C1998 C 0.05748 -0.00210 0.81195
 C1999 C 0.04646 0.01275 0.85080
 C2000 C 0.04023 0.01418 0.86312
 C2001 C 0.03373 0.01554 0.87794
 C2002 C 0.02903 0.01631 0.89093
 C2003 C 0.02462 0.01661 0.90682
 C2004 C 0.00898 0.01937 0.91147
 C2005 C 0.00493 0.01862 0.92700
 C2006 C 0.01648 0.01499 0.93799
 C2007 C 0.03220 0.01264 0.93314
 C2008 C 0.03620 0.01345 0.91772
 H2009 H 0.03820 -0.00622 0.82751
 H2010 H 0.07317 0.02727 0.84215
 H2011 H 0.08796 0.02331 0.81839
 H2012 H 0.05306 -0.01052 0.80376
 H2013 H -0.00009 0.02181 0.90311
 H2014 H -0.00727 0.02045 0.93035
 H2015 H 0.04144 0.00993 0.94124
 H2016 H 0.04833 0.01132 0.91428
 C2017 C 0.54793 0.49849 0.32295
 C2018 C 0.55315 0.50867 0.33441
 C2019 C 0.56721 0.51711 0.33236
 C2020 C 0.57609 0.51529 0.31900
 C2021 C 0.57105 0.50497 0.30747
 C2022 C 0.55679 0.49668 0.30954
 C2023 C 0.54462 0.50995 0.34862
 C2024 C 0.53814 0.51090 0.36086
 C2025 C 0.53145 0.51176 0.37563
 C2026 C 0.52669 0.51217 0.38861
 C2027 C 0.52236 0.51213 0.40452
 C2028 C 0.53400 0.50871 0.41528
 C2029 C 0.53018 0.50793 0.43073
 C2030 C 0.51458 0.51056 0.43578
 C2031 C 0.50292 0.51430 0.42492
 C2032 C 0.50680 0.51504 0.40935
 H2033 H 0.53714 0.49180 0.32446
 H2034 H 0.57139 0.52499 0.34116
 H2035 H 0.58686 0.52204 0.31766
 H2036 H 0.55267 0.48854 0.30095
 H2037 H 0.54607 0.50646 0.41170
 H2038 H 0.53952 0.50511 0.43871
 H2039 H 0.49081 0.51638 0.42841
 H2040 H 0.49768 0.51770 0.40110
 C2041 C 0.54761 0.48890 0.17762
 C2042 C 0.55404 0.49419 0.16379
 C2043 C 0.56909 0.50101 0.16354
 C2044 C 0.57773 0.50246 0.17700
 C2045 C 0.57145 0.49709 0.19096
 C2046 C 0.55624 0.49035 0.19112
 C2047 C 0.54546 0.49246 0.14973
 C2048 C 0.53891 0.49122 0.13761
 C2049 C 0.53213 0.49011 0.12296
 C2050 C 0.52727 0.48954 0.11006
 C2051 C 0.52282 0.48946 0.09422
 C2052 C 0.53435 0.49287 0.08326
 C2053 C 0.53041 0.49358 0.06787
 C2054 C 0.51479 0.49089 0.06308
 C2055 C 0.50326 0.48713 0.07413
 C2056 C 0.50726 0.48647 0.08965
 H2057 H 0.53597 0.48363 0.17797
 H2058 H 0.57422 0.50509 0.15289
 H2059 H 0.58947 0.50747 0.17641
 H2060 H 0.55098 0.48628 0.20170
 H2061 H 0.54642 0.49518 0.08664
 H2062 H 0.53966 0.49640 0.05974
 H2063 H 0.49114 0.48501 0.07084
 H2064 H 0.49822 0.48382 0.09805
 C2065 C 0.05945 0.97853 0.67188
 C2066 C 0.05183 0.99178 0.66567
 C2067 C 0.05279 1.00636 0.67310
 C2068 C 0.06146 1.00775 0.68657
 C2069 C 0.06933 0.99455 0.69280
 C2070 C 0.06811 0.97989 0.68535
 C2071 C 0.04384 0.99061 0.65124
 C2072 C 0.03770 0.98981 0.63887
 C2073 C 0.03128 0.98917 0.62404
 C2074 C 0.02662 0.98900 0.61106
 C2075 C 0.02227 0.98935 0.59519
 C2076 C 0.03358 0.99402 0.58445
 C2077 C 0.02971 0.99496 0.56904
 C2078 C 0.01438 0.99122 0.56402
 C2079 C 0.00308 0.98629 0.57487
 C2080 C 0.00701 0.98539 0.59039
 H2081 H 0.05892 0.96721 0.66616
 H2082 H 0.04699 1.01671 0.66838
 H2083 H 0.06199 1.01915 0.69213
 H2084 H 0.07420 0.96955 0.68970
 H2085 H 0.04542 0.99709 0.58800
 H2086 H 0.03877 0.99873 0.56108
 H2087 H -0.00881 0.98334 0.57141
 H2088 H -0.00185 0.98175 0.59862
 C2089 C -0.04695 0.49313 0.67855
 C2090 C -0.05283 0.50202 0.66631
 C2091 C -0.06758 0.50942 0.66758
 C2092 C -0.07649 0.50788 0.68095
 C2093 C -0.07077 0.49888 0.69329
 C2094 C -0.05584 0.49160 0.69198
 C2095 C -0.04417 0.50313 0.65216
 C2096 C -0.03764 0.50402 0.63993
 C2097 C -0.03097 0.50489 0.62515
 C2098 C -0.02627 0.50535 0.61215
 C2099 C -0.02204 0.50542 0.59621
 C2100 C -0.03359 0.50151 0.58557
 C2101 C -0.02991 0.50104 0.57008
 C2102 C -0.01452 0.50450 0.56488
 C2103 C -0.00296 0.50866 0.57563
 C2104 C -0.00671 0.50909 0.59124
 H2105 H -0.03559 0.48726 0.67766
 H2106 H -0.07227 0.51631 0.65818
 H2107 H -0.08779 0.51386 0.68169
 H2108 H -0.05118 0.48449 0.70123
 H2109 H -0.04550 0.49867 0.58926
 H2110 H -0.03916 0.49786 0.56220
 H2111 H 0.00898 0.51137 0.57203
 H2112 H 0.00233 0.51216 0.59940
 C2113 C 0.45005 0.01033 0.17712
 C2114 C 0.44499 0.00258 0.16395
 C2115 C 0.43142 -0.00683 0.16450
 C2116 C 0.42282 -0.00834 0.17807
 C2117 C 0.42765 -0.00043 0.19133
 C2118 C 0.44146 0.00881 0.19074
 C2119 C 0.45328 0.00459 0.14967
 C2120 C 0.45957 0.00607 0.13737
 C2121 C 0.46606 0.00748 0.12255
 C2122 C 0.47070 0.00832 0.10954
 C2123 C 0.47497 0.00876 0.09361
 C2124 C 0.46332 0.00570 0.08280
 C2125 C 0.46713 0.00531 0.06733
 C2126 C 0.48274 0.00799 0.06232
 C2127 C 0.49438 0.01140 0.07324
 C2128 C 0.49051 0.01174 0.08882
 H2129 H 0.46049 0.01770 0.17682
 H2130 H 0.42739 -0.01290 0.15439
 H2131 H 0.41239 -0.01572 0.17819
 H2132 H 0.44540 0.01519 0.20069
 H2133 H 0.45126 0.00339 0.08635
 H2134 H 0.45781 0.00273 0.05931
 H2135 H 0.50650 0.01349 0.06978
 H2136 H 0.49965 0.01412 0.09710
 C2137 C 0.34008 0.40276 -0.00148
 C2138 C 0.34073 0.41625 0.00770
 C2139 C 0.32701 0.42162 0.01502
 C2140 C 0.31273 0.41354 0.01321
 C2141 C 0.31196 0.39994 0.00402
 C2142 C 0.32583 0.39466 -0.00331
 C2143 C 0.35543 0.42467 0.00938
 C2144 C 0.36777 0.43171 0.01047
 C2145 C 0.38225 0.43999 0.01128
 C2146 C 0.39459 0.44713 0.01142
 C2147 C 0.40926 0.45577 0.01075
 C2148 C 0.42034 0.45470 0.02255
 C2149 C 0.43480 0.46270 0.02137
 C2150 C 0.43836 0.47182 0.00833
 C2151 C 0.42701 0.47295 -0.00333
 C2152 C 0.41262 0.46501 -0.00211
 H2153 H 0.35059 0.39853 -0.00728
 H2154 H 0.32734 0.43204 0.02216
 H2155 H 0.30234 0.41780 0.01918
 H2156 H 0.32562 0.38437 -0.01060
 H2157 H 0.41789 0.44755 0.03255
 H2158 H 0.44329 0.46150 0.03051
 H2159 H 0.42928 0.47987 -0.01352
 H2160 H 0.40417 0.46593 -0.01131
 C2161 C -0.16029 0.90261 0.50082
 C2162 C -0.15964 0.91626 0.50977
 C2163 C -0.17337 0.92176 0.51701
 C2164 C -0.18765 0.91364 0.51534
 C2165 C -0.18841 0.89987 0.50639
 C2166 C -0.17454 0.89447 0.49914
 C2167 C -0.14494 0.92471 0.51127
 C2168 C -0.13258 0.93174 0.51221
 C2169 C -0.11806 0.93998 0.51283
 C2170 C -0.10569 0.94706 0.51281
 C2171 C -0.09097 0.95562 0.51197
 C2172 C -0.07992 0.95478 0.52380
 C2173 C -0.06545 0.96274 0.52249
 C2174 C -0.06185 0.97160 0.50929
 C2175 C -0.07317 0.97248 0.49759
 C2176 C -0.08756 0.96457 0.49893
 H2177 H -0.14978 0.89829 0.49507
 H2178 H -0.17304 0.93231 0.52396
 H2179 H -0.19804 0.91799 0.52124
 H2180 H -0.17474 0.88405 0.49201
 H2181 H -0.08240 0.94785 0.53394
 H2182 H -0.05700 0.96174 0.53168
 H2183 H -0.07087 0.97920 0.48728
 H2184 H -0.09600 0.96532 0.48970
 C2185 C -0.16954 0.08845 0.97961
 C2186 C -0.16049 0.08506 0.99250
 C2187 C -0.16627 0.08910 1.00692
 C2188 C -0.18094 0.09660 1.00848
 C2189 C -0.19030 0.10028 0.99559
 C2190 C -0.18425 0.09593 0.98110
 C2191 C -0.14527 0.07744 0.99102
 C2192 C -0.13252 0.07105 0.99012
 C2193 C -0.11759 0.06347 0.98956
 C2194 C -0.10491 0.05686 0.98963
 C2195 C -0.08990 0.04877 0.99054
 C2196 C -0.08635 0.03993 1.00359
 C2197 C -0.07181 0.03221 1.00488
 C2198 C -0.06048 0.03316 0.99309
 C2199 C -0.06416 0.04200 0.97992
 C2200 C -0.07878 0.04977 0.97867
 H2201 H -0.16516 0.08546 0.96836
 H2202 H -0.15944 0.08638 1.01702
 H2203 H -0.18503 0.09894 1.01994
 H2204 H -0.19041 0.09884 0.97069
 H2205 H -0.09483 0.03906 1.01286
 H2206 H -0.06946 0.02551 1.01518
 H2207 H -0.05572 0.04304 0.97066
 H2208 H -0.08138 0.05660 0.96851
 C2209 C 0.33182 0.58933 0.47976
 C2210 C 0.33885 0.58192 0.49232
 C2211 C 0.33139 0.58256 0.50659
 C2212 C 0.31702 0.59061 0.50831
 C2213 C 0.30987 0.59815 0.49577
 C2214 C 0.31745 0.59738 0.48145
 C2215 C 0.35377 0.57376 0.49066
 C2216 C 0.36628 0.56692 0.48956
 C2217 C 0.38094 0.55887 0.48872
 C2218 C 0.39344 0.55193 0.48852
 C2219 C 0.40830 0.54353 0.48910
 C2220 C 0.41191 0.53444 0.50198
 C2221 C 0.42648 0.52675 0.50308
 C2222 C 0.43777 0.52798 0.49129
 C2223 C 0.43397 0.53695 0.47823
 C2224 C 0.41933 0.54470 0.47717
 H2225 H 0.33750 0.58897 0.46867
 H2226 H 0.33669 0.57685 0.51640
 H2227 H 0.31143 0.59081 0.51944
 H2228 H 0.31240 0.60324 0.47161
 H2229 H 0.40350 0.53344 0.51128
 H2230 H 0.42894 0.51993 0.51329
 H2231 H 0.44240 0.53823 0.46898
 H2232 H 0.41669 0.55173 0.46714
 C2233 C 0.17222 0.57568 0.51605
 C2234 C 0.15850 0.58088 0.50869
 C2235 C 0.15897 0.59458 0.49968
 C2236 C 0.17305 0.60306 0.49807
 C2237 C 0.18692 0.59797 0.50544
 C2238 C 0.18633 0.58415 0.51445
 C2239 C 0.14396 0.57210 0.51018
 C2240 C 0.13174 0.56483 0.51115
 C2241 C 0.11737 0.55633 0.51184
 C2242 C 0.10509 0.54908 0.51193
 C2243 C 0.09046 0.54039 0.51131
 C2244 C 0.08699 0.53157 0.49830
 C2245 C 0.07260 0.52364 0.49716
 C2246 C 0.06136 0.52437 0.50904
 C2247 C 0.06504 0.53306 0.52222
 C2248 C 0.07950 0.54104 0.52332
 H2249 H 0.17201 0.56510 0.52306
 H2250 H 0.14846 0.59868 0.49385
 H2251 H 0.17313 0.61351 0.49090
 H2252 H 0.19671 0.58001 0.52045
 H2253 H 0.09535 0.53097 0.48893
 H2254 H 0.07023 0.51705 0.48686
 H2255 H 0.05665 0.53395 0.53154
 H2256 H 0.08203 0.54787 0.53343
 C2257 C 0.67130 0.07618 0.01476
 C2258 C 0.65765 0.08145 0.00731
 C2259 C 0.65830 0.09505 -0.00182
 C2260 C 0.67246 0.10340 -0.00343
 C2261 C 0.68624 0.09826 0.00408
 C2262 C 0.68549 0.08451 0.01316
 C2263 C 0.64300 0.07288 0.00884
 C2264 C 0.63064 0.06582 0.00981
 C2265 C 0.61610 0.05762 0.01047
 C2266 C 0.60368 0.05063 0.01051
 C2267 C 0.58887 0.04224 0.00976
 C2268 C 0.57775 0.04321 0.02162
 C2269 C 0.56316 0.03549 0.02039
 C2270 C 0.55951 0.02675 0.00724
 C2271 C 0.57090 0.02571 -0.00449
 C2272 C 0.58542 0.03337 -0.00321
 H2273 H 0.67096 0.06566 0.02186
 H2274 H 0.64786 0.09921 -0.00772
 H2275 H 0.67266 0.11379 -0.01067
 H2276 H 0.69581 0.08035 0.01925
 H2277 H 0.58026 0.05008 0.03171
 H2278 H 0.55466 0.03661 0.02959
 H2279 H 0.56856 0.01907 -0.01476
 H2280 H 0.59390 0.03253 -0.01247
 C2281 C 0.65973 0.90329 0.49787
 C2282 C 0.65983 0.91855 0.49162
 C2283 C 0.67422 0.92546 0.48738
 C2284 C 0.68842 0.91717 0.48937
 C2285 C 0.68844 0.90182 0.49568
 C2286 C 0.67390 0.89498 0.49989
 C2287 C 0.64521 0.92720 0.48988
 C2288 C 0.63294 0.93444 0.48872
 C2289 C 0.61854 0.94296 0.48783
 C2290 C 0.60627 0.95030 0.48761
 C2291 C 0.59168 0.95918 0.48817
 C2292 C 0.58840 0.96853 0.50091
 C2293 C 0.57408 0.97671 0.50202
 C2294 C 0.56273 0.97570 0.49037
 C2295 C 0.56622 0.96647 0.47745
 C2296 C 0.58060 0.95824 0.47638
 H2297 H 0.64868 0.89779 0.50120
 H2298 H 0.67448 0.93730 0.48262
 H2299 H 0.69940 0.92285 0.48617
 H2300 H 0.67346 0.88311 0.50455
 H2301 H 0.59685 0.96937 0.51011
 H2302 H 0.57187 0.98371 0.51212
 H2303 H 0.55773 0.96537 0.46831
 H2304 H 0.58299 0.95101 0.46646
 C2305 C 0.16740 0.41225 0.97833
 C2306 C 0.16047 0.41987 0.99083
 C2307 C 0.16785 0.41912 1.00508
 C2308 C 0.18202 0.41076 1.00684
 C2309 C 0.18907 0.40300 0.99436
 C2310 C 0.18159 0.40389 0.98006
 C2311 C 0.14573 0.42833 0.98915
 C2312 C 0.13337 0.43541 0.98807
 C2313 C 0.11886 0.44374 0.98733
 C2314 C 0.10649 0.45091 0.98731
 C2315 C 0.09178 0.45955 0.98819
 C2316 C 0.08815 0.46789 1.00148
 C2317 C 0.07372 0.47579 1.00291
 C2318 C 0.06259 0.47552 0.99102
 C2319 C 0.06642 0.46733 0.97755
 C2320 C 0.08093 0.45936 0.97616
 H2321 H 0.16179 0.41269 0.96726
 H2322 H 0.16263 0.42499 1.01484
 H2323 H 0.18755 0.41048 1.01795
 H2324 H 0.18655 0.39787 0.97027
 H2325 H 0.09643 0.46814 1.01087
 H2326 H 0.07124 0.48200 1.01343
 H2327 H 0.05810 0.46680 0.96822
 H2328 H 0.08358 0.45291 0.96582
 C2329 C -0.02841 0.32593 0.42194
 C2330 C -0.01600 0.33676 0.42300
 C2331 C -0.00163 0.33375 0.41564
 C2332 C 0.00043 0.31991 0.40731
 C2333 C -0.01189 0.30886 0.40625
 C2334 C -0.02638 0.31203 0.41356
 C2335 C -0.01772 0.35101 0.43162
 C2336 C -0.01829 0.36317 0.43864
 C2337 C -0.01800 0.37758 0.44654
 C2338 C -0.01706 0.39003 0.45301
 C2339 C -0.01526 0.40500 0.46037
 C2340 C -0.00530 0.40634 0.47297
 C2341 C -0.00275 0.42110 0.47957
 C2342 C -0.01011 0.43471 0.47359
 C2343 C -0.02022 0.43318 0.46098
 C2344 C -0.02275 0.41841 0.45441
 H2345 H -0.03957 0.32819 0.42762
 H2346 H 0.00801 0.34212 0.41635
 H2347 H 0.01161 0.31791 0.40157
 H2348 H -0.03601 0.30365 0.41300
 H2349 H 0.00063 0.39601 0.47757
 H2350 H 0.00507 0.42184 0.48928
 H2351 H -0.02612 0.44339 0.45611
 H2352 H -0.03039 0.41748 0.44458
 C2353 C 0.47068 -0.17231 -0.07876
 C2354 C 0.48294 -0.16128 -0.07795
 C2355 C 0.49733 -0.16424 -0.08529
 C2356 C 0.49957 -0.17825 -0.09332
 C2357 C 0.48742 -0.18951 -0.09410
 C2358 C 0.47290 -0.18638 -0.08684
 C2359 C 0.48107 -0.14691 -0.06954
 C2360 C 0.48039 -0.13467 -0.06267
 C2361 C 0.48057 -0.12017 -0.05492
 C2362 C 0.48143 -0.10765 -0.04855
 C2363 C 0.48315 -0.09261 -0.04130
 C2364 C 0.49296 -0.09117 -0.02860
 C2365 C 0.49545 -0.07636 -0.02209
 C2366 C 0.48818 -0.06280 -0.02826
 C2367 C 0.47822 -0.06443 -0.04097
 C2368 C 0.47575 -0.07925 -0.04745
 H2369 H 0.45950 -0.17009 -0.07309
 H2370 H 0.50685 -0.15573 -0.08477
 H2371 H 0.51077 -0.18022 -0.09903
 H2372 H 0.46339 -0.19491 -0.08718
 H2373 H 0.49883 -0.10147 -0.02385
 H2374 H 0.50316 -0.07554 -0.01231
 H2375 H 0.47238 -0.05426 -0.04599
 H2376 H 0.46822 -0.08027 -0.05735
 C2377 C 0.02415 -0.16646 1.07933
 C2378 C 0.01393 -0.16422 1.06702
 C2379 C 0.00275 -0.17576 1.06349
 C2380 C 0.00149 -0.18935 1.07250
 C2381 C 0.01138 -0.19148 1.08519
 C2382 C 0.02291 -0.18003 1.08836
 C2383 C 0.01400 -0.14950 1.05888
 C2384 C 0.01363 -0.13687 1.05256
 C2385 C 0.01275 -0.12181 1.04576
 C2386 C 0.01171 -0.10875 1.04041
 C2387 C 0.01022 -0.09300 1.03450
 C2388 C 0.00052 -0.08998 1.02195
 C2389 C -0.00136 -0.07453 1.01657
 C2390 C 0.00642 -0.06190 1.02373
 C2391 C 0.01617 -0.06511 1.03633
 C2392 C 0.01804 -0.08056 1.04167
 H2393 H 0.03280 -0.15754 1.08217
 H2394 H -0.00531 -0.17404 1.05406
 H2395 H -0.00762 -0.19788 1.06990
 H2396 H 0.03080 -0.18148 1.09795
 H2397 H -0.00564 -0.09956 1.01639
 H2398 H -0.00893 -0.07249 1.00683
 H2399 H 0.02238 -0.05569 1.04209
 H2400 H 0.02550 -0.08280 1.05146
 C2401 C 0.52362 0.32500 0.56790
 C2402 C 0.52342 0.33967 0.57520
 C2403 C 0.52156 0.34046 0.59103
 C2404 C 0.51934 0.32664 0.59950
 C2405 C 0.51894 0.31188 0.59221
 C2406 C 0.52146 0.31114 0.57637
 C2407 C 0.52364 0.35402 0.56644
 C2408 C 0.52303 0.36625 0.55944
 C2409 C 0.52153 0.38076 0.55170
 C2410 C 0.51973 0.39332 0.54548
 C2411 C 0.51714 0.40848 0.53853
 C2412 C 0.50694 0.40994 0.52610
 C2413 C 0.50383 0.42483 0.51981
 C2414 C 0.51088 0.43843 0.52595
 C2415 C 0.52118 0.43678 0.53842
 C2416 C 0.52426 0.42189 0.54466
 H2417 H 0.52493 0.32430 0.55562
 H2418 H 0.52134 0.35178 0.59676
 H2419 H 0.51764 0.32751 0.61171
 H2420 H 0.52105 0.29992 0.57047
 H2421 H 0.50129 0.39960 0.52135
 H2422 H 0.49588 0.42567 0.51021
 H2423 H 0.52686 0.44698 0.54340
 H2424 H 0.53210 0.42086 0.55435
 C2425 C 0.46920 1.17340 0.57731
 C2426 C 0.47975 1.17062 0.56529
 C2427 C 0.49125 1.18185 0.56159
 C2428 C 0.49259 1.19559 0.57024
 C2429 C 0.48246 1.19821 0.58274
 C2430 C 0.47051 1.18715 0.58597
 C2431 C 0.47990 1.15559 0.55779
 C2432 C 0.48072 1.14278 0.55195
 C2433 C 0.48239 1.12763 0.54559
 C2434 C 0.48429 1.11459 0.54047
 C2435 C 0.48697 1.09899 0.53464
 C2436 C 0.49723 1.09675 0.52230
 C2437 C 0.50015 1.08154 0.51683
 C2438 C 0.49283 1.06836 0.52368
 C2439 C 0.48257 1.07076 0.53615
 C2440 C 0.47968 1.08599 0.54159
 H2441 H 0.46030 1.16472 0.58029
 H2442 H 0.49957 1.17971 0.55240
 H2443 H 0.50204 1.20377 0.56760
 H2444 H 0.46243 1.18896 0.59541
 H2445 H 0.50299 1.10677 0.51692
 H2446 H 0.50809 1.08013 0.50721
 H2447 H 0.47671 1.06090 0.54167
 H2448 H 0.47178 1.08763 0.55121
 C2449 C -0.01096 0.67510 1.07296
 C2450 C -0.01853 0.66260 1.08046
 C2451 C -0.02472 0.66475 1.09513
 C2452 C -0.02302 0.67929 1.10243
 C2453 C -0.01503 0.69178 1.09512
 C2454 C -0.00923 0.68962 1.08023
 C2455 C -0.01896 0.64735 1.07343
 C2456 C -0.01861 0.63460 1.06743
 C2457 C -0.01745 0.61980 1.06028
 C2458 C -0.01592 0.60726 1.05405
 C2459 C -0.01356 0.59244 1.04649
 C2460 C -0.02107 0.57880 1.05186
 C2461 C -0.01853 0.56436 1.04457
 C2462 C -0.00840 0.56342 1.03181
 C2463 C -0.00089 0.57724 1.02654
 C2464 C -0.00346 0.59165 1.03385
 H2465 H -0.00612 0.67352 1.06161
 H2466 H -0.03050 0.65508 1.10105
 H2467 H -0.02746 0.68060 1.11395
 H2468 H -0.00321 0.69912 1.07428
 H2469 H -0.02887 0.57932 1.06168
 H2470 H -0.02451 0.55397 1.04891
 H2471 H 0.00696 0.57696 1.01676
 H2472 H 0.00245 0.60217 1.02967
 C2473 C 0.52552 0.66688 -0.08592
 C2474 C 0.51487 0.66365 -0.07408
 C2475 C 0.50304 0.67458 -0.07039
 C2476 C 0.50167 0.68862 -0.07869
 C2477 C 0.51210 0.69184 -0.09082
 C2478 C 0.52416 0.68092 -0.09425
 C2479 C 0.51543 0.64873 -0.06631
 C2480 C 0.51538 0.63608 -0.06002
 C2481 C 0.51476 0.62119 -0.05291
 C2482 C 0.51379 0.60838 -0.04700
 C2483 C 0.51217 0.59308 -0.04011
 C2484 C 0.50251 0.59118 -0.02727
 C2485 C 0.50042 0.57620 -0.02086
 C2486 C 0.50796 0.56292 -0.02727
 C2487 C 0.51772 0.56500 -0.04016
 C2488 C 0.51978 0.58000 -0.04654
 H2489 H 0.53468 0.65844 -0.08887
 H2490 H 0.49468 0.67210 -0.06130
 H2491 H 0.49214 0.69671 -0.07593
 H2492 H 0.53247 0.68320 -0.10342
 H2493 H 0.49652 0.60126 -0.02227
 H2494 H 0.49286 0.57504 -0.01093
 H2495 H 0.52373 0.55505 -0.04536
 H2496 H 0.52723 0.58139 -0.05654
 C2497 C 0.00929 1.16144 0.40767
 C2498 C 0.01313 1.16213 0.42310
 C2499 C 0.01612 1.17668 0.42992
 C2500 C 0.01507 1.19060 0.42136
 C2501 C 0.01094 1.19023 0.40574
 C2502 C 0.00823 1.17529 0.39906
 C2503 C 0.01338 1.14787 0.43197
 C2504 C 0.01319 1.13571 0.43909
 C2505 C 0.01252 1.12126 0.44702
 C2506 C 0.01165 1.10872 0.45343
 C2507 C 0.01033 1.09355 0.46064
 C2508 C 0.00054 1.09161 0.47340
 C2509 C -0.00129 1.07666 0.47998
 C2510 C 0.00664 1.06348 0.47382
 C2511 C 0.01654 1.06562 0.46104
 C2512 C 0.01835 1.08057 0.45450
 H2513 H 0.00680 1.15018 0.40234
 H2514 H 0.01922 1.17729 0.44187
 H2515 H 0.01796 1.20154 0.42703
 H2516 H 0.00445 1.17412 0.38736
 H2517 H -0.00577 1.10162 0.47817
 H2518 H -0.00897 1.07544 0.48981
 H2519 H 0.02286 1.05575 0.45604
 H2520 H 0.02589 1.08198 0.44458
 C2521 C 0.75833 0.69726 0.92587
 C2522 C 0.74405 0.69827 0.91793
 C2523 C 0.73071 0.69039 0.92354
 C2524 C 0.73166 0.68141 0.93694
 C2525 C 0.74602 0.68014 0.94491
 C2526 C 0.75932 0.68828 0.93927
 C2527 C 0.74332 0.70656 0.90354
 C2528 C 0.74287 0.71291 0.89120
 C2529 C 0.74262 0.71953 0.87638
 C2530 C 0.74276 0.72430 0.86339
 C2531 C 0.74348 0.72870 0.84751
 C2532 C 0.74918 0.71763 0.83705
 C2533 C 0.75018 0.72145 0.82160
 C2534 C 0.74548 0.73647 0.81625
 C2535 C 0.73966 0.74757 0.82684
 C2536 C 0.73868 0.74369 0.84240
 H2537 H 0.76876 0.70326 0.92161
 H2538 H 0.71963 0.69095 0.91742
 H2539 H 0.72126 0.67513 0.94084
 H2540 H 0.77048 0.68771 0.94523
 H2541 H 0.75290 0.70600 0.84084
 H2542 H 0.75469 0.71255 0.81387
 H2543 H 0.73594 0.75923 0.82312
 H2544 H 0.73422 0.75236 0.85041
 C2545 C 0.22949 0.18993 0.42164
 C2546 C 0.24278 0.19771 0.41577
 C2547 C 0.25713 0.19687 0.42362
 C2548 C 0.25823 0.18814 0.43717
 C2549 C 0.24499 0.18010 0.44305
 C2550 C 0.23056 0.18121 0.43518
 C2551 C 0.24194 0.20572 0.40126
 C2552 C 0.24141 0.21187 0.38883
 C2553 C 0.24106 0.21828 0.37393
 C2554 C 0.24110 0.22291 0.36090
 C2555 C 0.24164 0.22724 0.34499
 C2556 C 0.23771 0.24252 0.34001
 C2557 C 0.23865 0.24640 0.32445
 C2558 C 0.24357 0.23501 0.31374
 C2559 C 0.24734 0.21967 0.31895
 C2560 C 0.24639 0.21586 0.33440
 H2561 H 0.21836 0.19037 0.41559
 H2562 H 0.26751 0.20279 0.41917
 H2563 H 0.26945 0.18768 0.44304
 H2564 H 0.22021 0.17500 0.43927
 H2565 H 0.23402 0.25144 0.34812
 H2566 H 0.23566 0.25830 0.32085
 H2567 H 0.25113 0.21055 0.31111
 H2568 H 0.24944 0.20400 0.33810
 C2569 C 0.76195 0.29878 0.42627
 C2570 C 0.75290 0.30256 0.41344
 C2571 C 0.74178 0.31482 0.41422
 C2572 C 0.73988 0.32345 0.42767
 C2573 C 0.74910 0.31994 0.44056
 C2574 C 0.76005 0.30739 0.43975
 C2575 C 0.75541 0.29440 0.39923
 C2576 C 0.75736 0.28819 0.38700
 C2577 C 0.75935 0.28176 0.37227
 C2578 C 0.76066 0.27715 0.35933
 C2579 C 0.76160 0.27290 0.34346
 C2580 C 0.75915 0.28467 0.33249
 C2581 C 0.75889 0.28084 0.31705
 C2582 C 0.76110 0.26511 0.31225
 C2583 C 0.76404 0.25336 0.32332
 C2584 C 0.76423 0.25724 0.33886
 H2585 H 0.77066 0.28937 0.42577
 H2586 H 0.73470 0.31786 0.40437
 H2587 H 0.73121 0.33290 0.42798
 H2588 H 0.76747 0.30452 0.44940
 H2589 H 0.75713 0.29682 0.33589
 H2590 H 0.75672 0.29023 0.30889
 H2591 H 0.76574 0.24115 0.32000
 H2592 H 0.76612 0.24802 0.34728
 C2593 C 0.24751 0.81784 0.91469
 C2594 C 0.25765 0.80473 0.91421
 C2595 C 0.26569 0.80004 0.92740
 C2596 C 0.26369 0.80850 0.94097
 C2597 C 0.25365 0.82181 0.94150
 C2598 C 0.24552 0.82632 0.92821
 C2599 C 0.26002 0.79648 0.90003
 C2600 C 0.26174 0.79016 0.88781
 C2601 C 0.26335 0.78358 0.87310
 C2602 C 0.26428 0.77882 0.86017
 C2603 C 0.26472 0.77437 0.84433
 C2604 C 0.26742 0.75868 0.83984
 C2605 C 0.26677 0.75459 0.82435
 C2606 C 0.26329 0.76615 0.81325
 C2607 C 0.26100 0.78191 0.81793
 C2608 C 0.26171 0.78594 0.83330
 H2609 H 0.24121 0.82157 0.90457
 H2610 H 0.27362 0.78996 0.92715
 H2611 H 0.27027 0.80484 0.95094
 H2612 H 0.23755 0.83636 0.92829
 H2613 H 0.26974 0.74961 0.84829
 H2614 H 0.26856 0.74237 0.82113
 H2615 H 0.25841 0.79116 0.80973
 H2616 H 0.25962 0.79811 0.83662
 C2617 C 0.23365 0.79916 0.07340
 C2618 C 0.24207 0.80387 0.08625
 C2619 C 0.25216 0.81688 0.08526
 C2620 C 0.25373 0.82527 0.07158
 C2621 C 0.24516 0.82090 0.05845
 C2622 C 0.23516 0.80751 0.05967
 C2623 C 0.24015 0.79571 0.10061
 C2624 C 0.23874 0.78945 0.11293
 C2625 C 0.23743 0.78290 0.12774
 C2626 C 0.23671 0.77815 0.14071
 C2627 C 0.23645 0.77370 0.15660
 C2628 C 0.23959 0.78526 0.16750
 C2629 C 0.24030 0.78125 0.18291
 C2630 C 0.23787 0.76554 0.18777
 C2631 C 0.23433 0.75399 0.17678
 C2632 C 0.23368 0.75806 0.16125
 H2633 H 0.22588 0.78901 0.07399
 H2634 H 0.25865 0.82073 0.09519
 H2635 H 0.26115 0.83564 0.07172
 H2636 H 0.22876 0.80304 0.04997
 H2637 H 0.24174 0.79739 0.16406
 H2638 H 0.24294 0.79049 0.19100
 H2639 H 0.23243 0.74180 0.18013
 H2640 H 0.23125 0.74900 0.15290
 C2641 C 0.73269 0.30677 0.57630
 C2642 C 0.74669 0.30073 0.58236
 C2643 C 0.76105 0.30388 0.57505
 C2644 C 0.76146 0.31325 0.56185
 C2645 C 0.74746 0.31983 0.55571
 C2646 C 0.73302 0.31616 0.56315
 C2647 C 0.74636 0.29213 0.59659
 C2648 C 0.74607 0.28555 0.60881
 C2649 C 0.74584 0.27869 0.62353
 C2650 C 0.74591 0.27374 0.63645
 C2651 C 0.74644 0.26911 0.65227
 C2652 C 0.73948 0.25505 0.65749
 C2653 C 0.73985 0.25115 0.67306
 C2654 C 0.74716 0.26132 0.68355
 C2655 C 0.75419 0.27534 0.67807
 C2656 C 0.75382 0.27916 0.66261
 H2657 H 0.72147 0.30434 0.58182
 H2658 H 0.77201 0.29940 0.57975
 H2659 H 0.77294 0.31588 0.55707
 H2660 H 0.72177 0.32010 0.55872
 H2661 H 0.73369 0.24719 0.64957
 H2662 H 0.73433 0.24029 0.67687
 H2663 H 0.75998 0.28346 0.68573
 H2664 H 0.75923 0.29006 0.65872
 C2665 C 0.26263 0.20018 0.57376
 C2666 C 0.25446 0.19535 0.58688
 C2667 C 0.24467 0.18205 0.58632
 C2668 C 0.24316 0.17352 0.57279
 C2669 C 0.25144 0.17817 0.55958
 C2670 C 0.26112 0.19167 0.56019
 C2671 C 0.25632 0.20367 0.60107
 C2672 C 0.25762 0.21003 0.61328
 C2673 C 0.25876 0.21663 0.62802
 C2674 C 0.25930 0.22136 0.64096
 C2675 C 0.25931 0.22572 0.65683
 C2676 C 0.25522 0.21428 0.66767
 C2677 C 0.25446 0.21817 0.68308
 C2678 C 0.25780 0.23364 0.68800
 C2679 C 0.26219 0.24506 0.67706
 C2680 C 0.26291 0.24112 0.66153
 H2681 H 0.27030 0.21041 0.57407
 H2682 H 0.23827 0.17820 0.59639
 H2683 H 0.23545 0.16333 0.57265
 H2684 H 0.26781 0.19544 0.55028
 H2685 H 0.25243 0.20233 0.66419
 H2686 H 0.25112 0.20901 0.69112
 H2687 H 0.26481 0.25707 0.68045
 H2688 H 0.26608 0.25008 0.65322
 C2689 C 0.74819 0.67899 0.08844
 C2690 C 0.75467 0.69416 0.08820
 C2691 C 0.75954 0.70077 0.07435
 C2692 C 0.75805 0.69222 0.06080
 C2693 C 0.75168 0.67673 0.06079
 C2694 C 0.74670 0.67037 0.07497
 C2695 C 0.75641 0.70271 0.10228
 C2696 C 0.75767 0.70924 0.11442
 C2697 C 0.75883 0.71602 0.12908
 C2698 C 0.75944 0.72088 0.14198
 C2699 C 0.75961 0.72536 0.15782
 C2700 C 0.76260 0.74095 0.16236
 C2701 C 0.76205 0.74497 0.17787
 C2702 C 0.75841 0.73344 0.18897
 C2703 C 0.75569 0.71779 0.18421
 C2704 C 0.75629 0.71383 0.16881
 H2705 H 0.74423 0.67378 0.09910
 H2706 H 0.76469 0.71249 0.07403
 H2707 H 0.76262 0.69766 0.05052
 H2708 H 0.74110 0.65893 0.07580
 H2709 H 0.76518 0.74999 0.15393
 H2710 H 0.76418 0.75711 0.18114
 H2711 H 0.75295 0.70855 0.19237
 H2712 H 0.75397 0.70174 0.16546
 C2713 C 0.15120 0.58746 0.23455
 C2714 C 0.16502 0.59015 0.24284
 C2715 C 0.17069 0.57842 0.25274
 C2716 C 0.16259 0.56410 0.25438
 C2717 C 0.14864 0.56130 0.24615
 C2718 C 0.14307 0.57315 0.23618
 C2719 C 0.17322 0.60503 0.24142
 C2720 C 0.18009 0.61750 0.24049
 C2721 C 0.18818 0.63212 0.23983
 C2722 C 0.19517 0.64455 0.23977
 C2723 C 0.20364 0.65932 0.24046
 C2724 C 0.21278 0.66262 0.25329
 C2725 C 0.22066 0.67704 0.25447
 C2726 C 0.21955 0.68849 0.24280
 C2727 C 0.21048 0.68501 0.22981
 C2728 C 0.20256 0.67052 0.22868
 H2729 H 0.14669 0.59642 0.22684
 H2730 H 0.18133 0.58038 0.25928
 H2731 H 0.16710 0.55532 0.26227
 H2732 H 0.13252 0.57131 0.22950
 H2733 H 0.21372 0.65407 0.26248
 H2734 H 0.22753 0.67925 0.26461
 H2735 H 0.20931 0.69357 0.22066
 H2736 H 0.19549 0.66811 0.21870
 C2737 C 0.67311 0.07623 0.74623
 C2738 C 0.66586 0.08928 0.73935
 C2739 C 0.65025 0.08810 0.73440
 C2740 C 0.64189 0.07398 0.73636
 C2741 C 0.64895 0.06058 0.74336
 C2742 C 0.66482 0.06206 0.74820
 C2743 C 0.67431 0.10400 0.73770
 C2744 C 0.68137 0.11635 0.73662
 C2745 C 0.68968 0.13084 0.73586
 C2746 C 0.69683 0.14318 0.73580
 C2747 C 0.70547 0.15784 0.73663
 C2748 C 0.70564 0.16859 0.72442
 C2749 C 0.71371 0.18300 0.72570
 C2750 C 0.72166 0.18683 0.73926
 C2751 C 0.72153 0.17581 0.75136
 C2752 C 0.71352 0.16149 0.75003
 H2753 H 0.68516 0.07705 0.75027
 H2754 H 0.64452 0.09810 0.72897
 H2755 H 0.63007 0.07359 0.73178
 H2756 H 0.67083 0.05259 0.75413
 H2757 H 0.69941 0.16592 0.71398
 H2758 H 0.71350 0.19122 0.71620
 H2759 H 0.72754 0.17829 0.76195
 H2760 H 0.71349 0.15329 0.75957
 C2761 C 0.83436 0.08157 0.24415
 C2762 C 0.83393 0.08932 0.25822
 C2763 C 0.84128 0.08241 0.27087
 C2764 C 0.84909 0.06786 0.26945
 C2765 C 0.84968 0.06001 0.25533
 C2766 C 0.84217 0.06703 0.24270
 C2767 C 0.82605 0.10443 0.25958
 C2768 C 0.81945 0.11708 0.26040
 C2769 C 0.81163 0.13190 0.26090
 C2770 C 0.80486 0.14449 0.26079
 C2771 C 0.79659 0.15943 0.25987
 C2772 C 0.79732 0.17044 0.27175
 C2773 C 0.78946 0.18502 0.27046
 C2774 C 0.78081 0.18877 0.25724
 C2775 C 0.78011 0.17752 0.24545
 C2776 C 0.78792 0.16302 0.24678
 H2777 H 0.82867 0.08677 0.23428
 H2778 H 0.84108 0.08831 0.28181
 H2779 H 0.85494 0.06291 0.27934
 H2780 H 0.84222 0.06123 0.23172
 H2781 H 0.80403 0.16781 0.28194
 H2782 H 0.79032 0.19340 0.27972
 H2783 H 0.77356 0.17993 0.23512
 H2784 H 0.78726 0.15462 0.23751
 C2785 C 0.33489 0.58194 0.74465
 C2786 C 0.33441 0.58938 0.75887
 C2787 C 0.34157 0.58209 0.77144
 C2788 C 0.34924 0.56749 0.76977
 C2789 C 0.34987 0.55996 0.75548
 C2790 C 0.34256 0.56736 0.74295
 C2791 C 0.32669 0.60454 0.76048
 C2792 C 0.32020 0.61724 0.76148
 C2793 C 0.31250 0.63211 0.76215
 C2794 C 0.30580 0.64475 0.76214
 C2795 C 0.29758 0.65971 0.76128
 C2796 C 0.29866 0.67086 0.77301
 C2797 C 0.29085 0.68547 0.77175
 C2798 C 0.28188 0.68911 0.75870
 C2799 C 0.28082 0.67772 0.74706
 C2800 C 0.28859 0.66319 0.74836
 H2801 H 0.32937 0.58744 0.73484
 H2802 H 0.34132 0.58773 0.78250
 H2803 H 0.35493 0.56226 0.77961
 H2804 H 0.34265 0.56181 0.73184
 H2805 H 0.30562 0.66832 0.78307
 H2806 H 0.29198 0.69397 0.78089
 H2807 H 0.27402 0.68003 0.73686
 H2808 H 0.28765 0.65469 0.73921
 C2809 C 0.34940 0.40874 0.73754
 C2810 C 0.33375 0.40746 0.74249
 C2811 C 0.32632 0.42053 0.74913
 C2812 C 0.33446 0.43480 0.75084
 C2813 C 0.35038 0.43636 0.74597
 C2814 C 0.35762 0.42296 0.73923
 C2815 C 0.32543 0.39266 0.74109
 C2816 C 0.31845 0.38025 0.74019
 C2817 C 0.31023 0.36571 0.73959
 C2818 C 0.30313 0.35333 0.73960
 C2819 C 0.29451 0.33863 0.74042
 C2820 C 0.28571 0.33516 0.75353
 C2821 C 0.27768 0.32081 0.75482
 C2822 C 0.27827 0.30961 0.74297
 C2823 C 0.28700 0.31327 0.72971
 C2824 C 0.29509 0.32769 0.72847
 H2825 H 0.35528 0.39873 0.73229
 H2826 H 0.31423 0.41965 0.75317
 H2827 H 0.32830 0.44428 0.75659
 H2828 H 0.36949 0.42340 0.73468
 H2829 H 0.28516 0.34350 0.76286
 H2830 H 0.27107 0.31848 0.76518
 H2831 H 0.28778 0.30491 0.72041
 H2832 H 0.30189 0.33022 0.71826
 C2833 C 0.82792 0.92164 0.23661
 C2834 C 0.83309 0.90787 0.24401
 C2835 C 0.84652 0.90840 0.25325
 C2836 C 0.85479 0.92256 0.25503
 C2837 C 0.84974 0.93647 0.24760
 C2838 C 0.83618 0.93584 0.23839
 C2839 C 0.82455 0.89323 0.24231
 C2840 C 0.81744 0.88093 0.24120
 C2841 C 0.80911 0.86647 0.24037
 C2842 C 0.80196 0.85413 0.24022
 C2843 C 0.79332 0.83944 0.24089
 C2844 C 0.78404 0.83611 0.25373
 C2845 C 0.77617 0.82168 0.25500
 C2846 C 0.77741 0.81025 0.24341
 C2847 C 0.78654 0.81379 0.23037
 C2848 C 0.79448 0.82829 0.22915
 H2849 H 0.81755 0.92140 0.22943
 H2850 H 0.85059 0.89785 0.25911
 H2851 H 0.86505 0.92267 0.26236
 H2852 H 0.83210 0.94626 0.23234
 H2853 H 0.78305 0.84462 0.26289
 H2854 H 0.76923 0.81943 0.26517
 H2855 H 0.78783 0.80524 0.22129
 H2856 H 0.80166 0.83071 0.21916
 C2857 C 0.66445 0.91486 0.74393
 C2858 C 0.66865 0.90978 0.75853
 C2859 C 0.66445 0.91894 0.77113
 C2860 C 0.65603 0.93308 0.76918
 C2861 C 0.65154 0.93844 0.75449
 C2862 C 0.65603 0.92897 0.74189
 C2863 C 0.67728 0.89515 0.76050
 C2864 C 0.68450 0.88287 0.76180
 C2865 C 0.69301 0.86846 0.76279
 C2866 C 0.70032 0.85617 0.76307
 C2867 C 0.70914 0.84153 0.76256
 C2868 C 0.70838 0.83057 0.77458
 C2869 C 0.71649 0.81611 0.77354
 C2870 C 0.72540 0.81242 0.76042
 C2871 C 0.72625 0.82366 0.74854
 C2872 C 0.71820 0.83805 0.74962
 H2873 H 0.66777 0.90794 0.73404
 H2874 H 0.66754 0.91508 0.78253
 H2875 H 0.65257 0.93934 0.77938
 H2876 H 0.65362 0.93256 0.73029
 H2877 H 0.70136 0.83310 0.78464
 H2878 H 0.71550 0.80770 0.78284
 H2879 H 0.73301 0.82128 0.73829
 H2880 H 0.71888 0.84641 0.74025
 C2881 C 0.16863 0.41746 0.24448
 C2882 C 0.16949 0.40982 0.25865
 C2883 C 0.16186 0.41646 0.27130
 C2884 C 0.15337 0.43061 0.26979
 C2885 C 0.15236 0.43835 0.25557
 C2886 C 0.16013 0.43160 0.24293
 C2887 C 0.17806 0.39511 0.26011
 C2888 C 0.18521 0.38275 0.26105
 C2889 C 0.19360 0.36826 0.26171
 C2890 C 0.20079 0.35589 0.26177
 C2891 C 0.20941 0.34115 0.26108
 C2892 C 0.20850 0.33007 0.27298
 C2893 C 0.21640 0.31551 0.27180
 C2894 C 0.22526 0.31184 0.25864
 C2895 C 0.22627 0.32319 0.24688
 C2896 C 0.21843 0.33769 0.24811
 H2897 H 0.17451 0.41247 0.23460
 H2898 H 0.16238 0.41064 0.28232
 H2899 H 0.14734 0.43535 0.27969
 H2900 H 0.15976 0.43733 0.23188
 H2901 H 0.20152 0.33259 0.28308
 H2902 H 0.21529 0.30702 0.28102
 H2903 H 0.23300 0.32083 0.23660
 H2904 H 0.21923 0.34614 0.23882
 C2905 C 0.08398 0.22662 0.83902
 C2906 C 0.08466 0.23133 0.82373
 C2907 C 0.07121 0.23749 0.81662
 C2908 C 0.05724 0.23943 0.82492
 C2909 C 0.05659 0.23523 0.84044
 C2910 C 0.07001 0.22852 0.84734
 C2911 C 0.09948 0.23113 0.81576
 C2912 C 0.11207 0.23161 0.80939
 C2913 C 0.12695 0.23282 0.80230
 C2914 C 0.13977 0.23428 0.79654
 C2915 C 0.15517 0.23636 0.78998
 C2916 C 0.15724 0.24642 0.77744
 C2917 C 0.17232 0.24882 0.77135
 C2918 C 0.18552 0.24119 0.77779
 C2919 C 0.18328 0.23110 0.79042
 C2920 C 0.16819 0.22872 0.79647
 H2921 H 0.09438 0.22197 0.84465
 H2922 H 0.07166 0.24121 0.80479
 H2923 H 0.04701 0.24445 0.81930
 H2924 H 0.06990 0.22537 0.85932
 H2925 H 0.14721 0.25244 0.77241
 H2926 H 0.17362 0.25664 0.76162
 H2927 H 0.19315 0.22500 0.79563
 H2928 H 0.16669 0.22097 0.80623
 C2929 C 0.58489 0.72584 0.34153
 C2930 C 0.58677 0.73159 0.32665
 C2931 C 0.57419 0.73916 0.31932
 C2932 C 0.55987 0.74135 0.32697
 C2933 C 0.55800 0.73602 0.34208
 C2934 C 0.57056 0.72801 0.34920
 C2935 C 0.60191 0.73081 0.31931
 C2936 C 0.61467 0.73084 0.31324
 C2937 C 0.62962 0.73160 0.30624
 C2938 C 0.64240 0.73279 0.30033
 C2939 C 0.65762 0.73473 0.29334
 C2940 C 0.65922 0.74445 0.28050
 C2941 C 0.67408 0.74684 0.27395
 C2942 C 0.68754 0.73951 0.28019
 C2943 C 0.68578 0.72971 0.29310
 C2944 C 0.67089 0.72735 0.29963
 H2945 H 0.59462 0.72008 0.34732
 H2946 H 0.57557 0.74367 0.30781
 H2947 H 0.55032 0.74738 0.32116
 H2948 H 0.56949 0.72393 0.36088
 H2949 H 0.64899 0.75027 0.27561
 H2950 H 0.67500 0.75443 0.26401
 H2951 H 0.69587 0.72386 0.29818
 H2952 H 0.66975 0.71986 0.30962
 C2953 C 0.57397 0.26683 0.18115
 C2954 C 0.58798 0.25981 0.17597
 C2955 C 0.58826 0.25170 0.16212
 C2956 C 0.57457 0.25056 0.15344
 C2957 C 0.56041 0.25754 0.15852
 C2958 C 0.56023 0.26569 0.17247
 C2959 C 0.60213 0.26069 0.18481
 C2960 C 0.61430 0.26102 0.19178
 C2961 C 0.62885 0.26093 0.19941
 C2962 C 0.64152 0.26049 0.20550
 C2963 C 0.65686 0.25958 0.21228
 C2964 C 0.65933 0.24997 0.22507
 C2965 C 0.67446 0.24840 0.23115
 C2966 C 0.68731 0.25641 0.22445
 C2967 C 0.68464 0.26617 0.21167
 C2968 C 0.66949 0.26771 0.20563
 H2969 H 0.57368 0.27314 0.19187
 H2970 H 0.59905 0.24617 0.15807
 H2971 H 0.57500 0.24399 0.14287
 H2972 H 0.54951 0.27130 0.17657
 H2973 H 0.64959 0.24357 0.23022
 H2974 H 0.67610 0.24082 0.24100
 H2975 H 0.69424 0.27254 0.20626
 H2976 H 0.66767 0.27511 0.19567
 C2977 C 0.08876 0.74868 0.66525
 C2978 C 0.08861 0.75806 0.67833
 C2979 C 0.07488 0.76623 0.68254
 C2980 C 0.06131 0.76503 0.67363
 C2981 C 0.06139 0.75567 0.66041
 C2982 C 0.07525 0.74747 0.65633
 C2983 C 0.10267 0.75923 0.68727
 C2984 C 0.11480 0.75981 0.69428
 C2985 C 0.12934 0.76002 0.70191
 C2986 C 0.14204 0.75982 0.70796
 C2987 C 0.15743 0.75918 0.71465
 C2988 C 0.16010 0.74974 0.72751
 C2989 C 0.17531 0.74835 0.73345
 C2990 C 0.18804 0.75637 0.72654
 C2991 C 0.18515 0.76598 0.71370
 C2992 C 0.16993 0.76735 0.70780
 H2993 H 0.09934 0.74228 0.66194
 H2994 H 0.07470 0.77354 0.69265
 H2995 H 0.05082 0.77156 0.67694
 H2996 H 0.07557 0.73998 0.64635
 H2997 H 0.15048 0.74331 0.73282
 H2998 H 0.17711 0.74089 0.74336
 H2999 H 0.19465 0.77235 0.70813
 H3000 H 0.16796 0.77461 0.69778
 C3001 C 0.91902 0.75084 0.66815
 C3002 C 0.91343 0.73600 0.67251
 C3003 C 0.92207 0.72242 0.66891
 C3004 C 0.93633 0.72369 0.66091
 C3005 C 0.94224 0.73865 0.65637
 C3006 C 0.93324 0.75220 0.66019
 C3007 C 0.89873 0.73486 0.68060
 C3008 C 0.88634 0.73450 0.68732
 C3009 C 0.87178 0.73477 0.69508
 C3010 C 0.85930 0.73553 0.70161
 C3011 C 0.84439 0.73700 0.70929
 C3012 C 0.83106 0.72941 0.70353
 C3013 C 0.81640 0.73147 0.71060
 C3014 C 0.81491 0.74120 0.72352
 C3015 C 0.82845 0.74867 0.72929
 C3016 C 0.84309 0.74658 0.72219
 H3017 H 0.91229 0.76142 0.67077
 H3018 H 0.91785 0.71086 0.67236
 H3019 H 0.94287 0.71290 0.65888
 H3020 H 0.93667 0.76392 0.65654
 H3021 H 0.83197 0.72203 0.69349
 H3022 H 0.80623 0.72552 0.70587
 H3023 H 0.82774 0.75621 0.73921
 H3024 H 0.85337 0.75255 0.72667
 C3025 C 0.41567 0.24664 0.16425
 C3026 C 0.41232 0.23229 0.17151
 C3027 C 0.42316 0.21978 0.17081
 C3028 C 0.43742 0.22169 0.16290
 C3029 C 0.44093 0.23616 0.15569
 C3030 C 0.42987 0.24858 0.15638
 C3031 C 0.39776 0.23069 0.17976
 C3032 C 0.38541 0.23020 0.18655
 C3033 C 0.37085 0.23056 0.19430
 C3034 C 0.35834 0.23156 0.20074
 C3035 C 0.34337 0.23347 0.20822
 C3036 C 0.34215 0.24315 0.22106
 C3037 C 0.32745 0.24581 0.22786
 C3038 C 0.31377 0.23883 0.22184
 C3039 C 0.31517 0.22899 0.20899
 C3040 C 0.32989 0.22636 0.20222
 H3041 H 0.40731 0.25636 0.16469
 H3042 H 0.42065 0.20863 0.17644
 H3043 H 0.44579 0.21198 0.16263
 H3044 H 0.43213 0.25975 0.15070
 H3045 H 0.35254 0.24878 0.22571
 H3046 H 0.32681 0.25341 0.23775
 H3047 H 0.30490 0.22339 0.20409
 H3048 H 0.33074 0.21893 0.19221
 C3049 C 0.42576 0.75753 0.31430
 C3050 C 0.41316 0.76677 0.31958
 C3051 C 0.41447 0.77502 0.33329
 C3052 C 0.42821 0.77370 0.34194
 C3053 C 0.44077 0.76407 0.33695
 C3054 C 0.43953 0.75621 0.32292
 C3055 C 0.39842 0.76676 0.31161
 C3056 C 0.38582 0.76627 0.30538
 C3057 C 0.37087 0.76519 0.29857
 C3058 C 0.35795 0.76390 0.29311
 C3059 C 0.34242 0.76203 0.28694
 C3060 C 0.32955 0.76956 0.29385
 C3061 C 0.31434 0.76733 0.28819
 C3062 C 0.31185 0.75749 0.27552
 C3063 C 0.32492 0.74999 0.26864
 C3064 C 0.34011 0.75225 0.27434
 H3065 H 0.42477 0.75099 0.30375
 H3066 H 0.40474 0.78216 0.33748
 H3067 H 0.42895 0.78004 0.35261
 H3068 H 0.44895 0.74857 0.31890
 H3069 H 0.33125 0.77710 0.30366
 H3070 H 0.30457 0.77332 0.29373
 H3071 H 0.32343 0.74236 0.25887
 H3072 H 0.35003 0.74631 0.26898
 C3073 C 0.92292 0.26912 0.82373
 C3074 C 0.90935 0.26239 0.83015
 C3075 C 0.91004 0.25513 0.84448
 C3076 C 0.92430 0.25444 0.85235
 C3077 C 0.93807 0.26102 0.84594
 C3078 C 0.93723 0.26844 0.83158
 C3079 C 0.89479 0.26243 0.82189
 C3080 C 0.88251 0.26206 0.81509
 C3081 C 0.86808 0.26120 0.80729
 C3082 C 0.85570 0.26013 0.80074
 C3083 C 0.84089 0.25855 0.79306
 C3084 C 0.82755 0.26660 0.79845
 C3085 C 0.81304 0.26476 0.79120
 C3086 C 0.81171 0.25479 0.77845
 C3087 C 0.82523 0.24677 0.77311
 C3088 C 0.83972 0.24865 0.78039
 H3089 H 0.92248 0.27476 0.81263
 H3090 H 0.89959 0.24981 0.84949
 H3091 H 0.92465 0.24845 0.86327
 H3092 H 0.94761 0.27375 0.82646
 H3093 H 0.82836 0.27426 0.80829
 H3094 H 0.80289 0.27113 0.79559
 H3095 H 0.82463 0.23903 0.76333
 H3096 H 0.85000 0.24233 0.77619
 C3097 C 0.56934 1.00000 0.66266
 C3098 C 0.55622 1.01012 0.66236
 C3099 C 0.55120 1.01752 0.67579
 C3100 C 0.55937 1.01493 0.68943
 C3101 C 0.57271 1.00493 0.68979
 C3102 C 0.57753 0.99742 0.67625
 C3103 C 0.54825 1.01308 0.64813
 C3104 C 0.54211 1.01530 0.63591
 C3105 C 0.53566 1.01750 0.62121
 C3106 C 0.53089 1.01890 0.60833
 C3107 C 0.52625 1.01986 0.59256
 C3108 C 0.51032 1.02104 0.58839
 C3109 C 0.50604 1.02041 0.57296
 C3110 C 0.51767 1.01842 0.56159
 C3111 C 0.53365 1.01783 0.56594
 C3112 C 0.53788 1.01855 0.58127
 H3113 H 0.57332 0.99417 0.65235
 H3114 H 0.54110 1.02542 0.67569
 H3115 H 0.55548 1.02104 0.69960
 H3116 H 0.58761 0.98950 0.67619
 H3117 H 0.50120 1.02203 0.59704
 H3118 H 0.49364 1.02084 0.57000
 H3119 H 0.54293 1.01641 0.55750
 H3120 H 0.55023 1.01762 0.58434
 C3121 C 0.07116 0.51268 1.16581
 C3122 C 0.05532 0.50827 1.16528
 C3123 C 0.04811 0.50196 1.17827
 C3124 C 0.05670 0.50003 1.19175
 C3125 C 0.07292 0.50430 1.19263
 C3126 C 0.07985 0.51077 1.17920
 C3127 C 0.04674 0.50979 1.15118
 C3128 C 0.04020 0.51094 1.13903
 C3129 C 0.03340 0.51202 1.12437
 C3130 C 0.02850 0.51261 1.11149
 C3131 C 0.02393 0.51279 1.09568
 C3132 C 0.00818 0.51512 1.09128
 C3133 C 0.00405 0.51446 1.07581
 C3134 C 0.01564 0.51137 1.06462
 C3135 C 0.03144 0.50938 1.06924
 C3136 C 0.03551 0.51009 1.08459
 H3137 H 0.07686 0.51770 1.15582
 H3138 H 0.03586 0.49829 1.17793
 H3139 H 0.05055 0.49437 1.20109
 H3140 H 0.09180 0.51517 1.17889
 H3141 H -0.00090 0.51722 1.09978
 H3142 H -0.00821 0.51603 1.07265
 H3143 H 0.04072 0.50708 1.06099
 H3144 H 0.04773 0.50829 1.08784
 C3145 C -0.04977 -0.00611 1.17640
 C3146 C -0.05700 -0.01356 1.16408
 C3147 C -0.07251 -0.01896 1.16555
 C3148 C -0.08085 -0.01681 1.17917
 C3149 C -0.07386 -0.00914 1.19178
 C3150 C -0.05805 -0.00395 1.19009
 C3151 C -0.04885 -0.01514 1.14970
 C3152 C -0.04258 -0.01622 1.13736
 C3153 C -0.03597 -0.01710 1.12256
 C3154 C -0.03107 -0.01740 1.10963
 C3155 C -0.02626 -0.01706 1.09384
 C3156 C -0.01038 -0.01884 1.08957
 C3157 C -0.00588 -0.01716 1.07423
 C3158 C -0.01723 -0.01355 1.06305
 C3159 C -0.03320 -0.01229 1.06747
 C3160 C -0.03764 -0.01403 1.08271
 H3161 H -0.03781 -0.00171 1.17534
 H3162 H -0.07821 -0.02483 1.15611
 H3163 H -0.09260 -0.02173 1.17980
 H3164 H -0.05211 0.00246 1.19902
 H3165 H -0.00145 -0.02116 1.09811
 H3166 H 0.00651 -0.01816 1.07122
 H3167 H -0.04229 -0.00962 1.05918
 H3168 H -0.04997 -0.01263 1.08586
 C3169 C 0.43126 0.49972 0.66411
 C3170 C 0.44460 0.48990 0.66353
 C3171 C 0.44953 0.48192 0.67670
 C3172 C 0.44109 0.48368 0.69036
 C3173 C 0.42756 0.49341 0.69100
 C3174 C 0.42280 0.50146 0.67772
 C3175 C 0.45291 0.48787 0.64929
 C3176 C 0.45930 0.48645 0.63704
 C3177 C 0.46601 0.48519 0.62232
 C3178 C 0.47095 0.48456 0.60940
 C3179 C 0.47569 0.48447 0.59360
 C3180 C 0.46408 0.48607 0.58242
 C3181 C 0.46833 0.48741 0.56710
 C3182 C 0.48433 0.48717 0.56264
 C3183 C 0.49596 0.48499 0.57389
 C3184 C 0.49165 0.48372 0.58931
 H3185 H 0.42735 0.50598 0.65400
 H3186 H 0.45979 0.47424 0.67638
 H3187 H 0.44495 0.47717 0.70034
 H3188 H 0.41258 0.50920 0.67789
 H3189 H 0.45170 0.48666 0.58559
 H3190 H 0.45904 0.48895 0.55877
 H3191 H 0.50837 0.48480 0.57083
 H3192 H 0.50075 0.48252 0.59788
 C3193 C 0.44547 0.49433 -0.17185
 C3194 C 0.44599 0.50921 -0.16493
 C3195 C 0.43820 0.52204 -0.17170
 C3196 C 0.42981 0.51998 -0.18525
 C3197 C 0.42907 0.50503 -0.19222
 C3198 C 0.43708 0.49224 -0.18540
 C3199 C 0.45377 0.51114 -0.15047
 C3200 C 0.45978 0.51259 -0.13812
 C3201 C 0.46614 0.51400 -0.12332
 C3202 C 0.47084 0.51481 -0.11038
 C3203 C 0.47541 0.51517 -0.09458
 C3204 C 0.49128 0.51657 -0.09031
 C3205 C 0.49550 0.51563 -0.07488
 C3206 C 0.48387 0.51315 -0.06360
 C3207 C 0.46793 0.51225 -0.06804
 C3208 C 0.46377 0.51326 -0.08338
 H3209 H 0.45140 0.48429 -0.16668
 H3210 H 0.43838 0.53358 -0.16639
 H3211 H 0.42358 0.53002 -0.19006
 H3212 H 0.43690 0.48063 -0.19056
 H3213 H 0.50040 0.51803 -0.09890
 H3214 H 0.50786 0.51632 -0.07185
 H3215 H 0.45864 0.51045 -0.05969
 H3216 H 0.45145 0.51217 -0.08653
 C3217 C -0.05479 0.99491 0.32908
 C3218 C -0.05417 1.00987 0.33582
 C3219 C -0.06170 1.02271 0.32879
 C3220 C -0.06996 1.02058 0.31517
 C3221 C -0.07084 1.00553 0.30840
 C3222 C -0.06305 0.99274 0.31547
 C3223 C -0.04656 1.01187 0.35036
 C3224 C -0.04067 1.01335 0.36277
 C3225 C -0.03443 1.01474 0.37763
 C3226 C -0.02980 1.01551 0.39060
 C3227 C -0.02528 1.01580 0.40642
 C3228 C -0.00946 1.01756 0.41074
 C3229 C -0.00525 1.01656 0.42617
 C3230 C -0.01683 1.01365 0.43741
 C3231 C -0.03273 1.01240 0.43292
 C3232 C -0.03688 1.01347 0.41758
 H3233 H -0.04906 0.98487 0.33444
 H3234 H -0.06143 1.03432 0.33396
 H3235 H -0.07600 1.03062 0.31017
 H3236 H -0.06334 0.98106 0.31046
 H3237 H -0.00036 1.01935 0.40218
 H3238 H 0.00709 1.01754 0.42923
 H3239 H -0.04198 1.01027 0.44123
 H3240 H -0.04916 1.01210 0.41439
 C3241 C 0.05346 0.50234 0.32854
 C3242 C 0.05304 0.48755 0.33577
 C3243 C 0.06105 0.47472 0.32927
 C3244 C 0.06959 0.47670 0.31570
 C3245 C 0.07026 0.49157 0.30844
 C3246 C 0.06199 0.50435 0.31497
 C3247 C 0.04515 0.48575 0.35027
 C3248 C 0.03906 0.48443 0.36268
 C3249 C 0.03264 0.48321 0.37754
 C3250 C 0.02792 0.48256 0.39053
 C3251 C 0.02337 0.48237 0.40639
 C3252 C 0.03504 0.48436 0.41742
 C3253 C 0.03093 0.48544 0.43279
 C3254 C 0.01501 0.48456 0.43746
 C3255 C 0.00334 0.48204 0.42634
 C3256 C 0.00751 0.48101 0.41087
 H3257 H 0.04734 0.51237 0.33349
 H3258 H 0.06094 0.46326 0.33482
 H3259 H 0.07599 0.46668 0.31111
 H3260 H 0.06211 0.51589 0.30958
 H3261 H 0.04735 0.48541 0.41411
 H3262 H 0.04026 0.48727 0.44101
 H3263 H -0.00901 0.48134 0.42954
 H3264 H -0.00164 0.47950 0.40241
 C3265 C 0.55349 0.00373 -0.17327
 C3266 C 0.55283 -0.01103 -0.16601
 C3267 C 0.56064 -0.02400 -0.17249
 C3268 C 0.56921 -0.02220 -0.18606
 C3269 C 0.57011 -0.00736 -0.19336
 C3270 C 0.56206 0.00557 -0.18685
 C3271 C 0.54486 -0.01268 -0.15153
 C3272 C 0.53869 -0.01389 -0.13915
 C3273 C 0.53213 -0.01498 -0.12433
 C3274 C 0.52728 -0.01554 -0.11138
 C3275 C 0.52254 -0.01563 -0.09556
 C3276 C 0.53408 -0.01362 -0.08441
 C3277 C 0.52979 -0.01244 -0.06908
 C3278 C 0.51382 -0.01326 -0.06459
 C3279 C 0.50227 -0.01581 -0.07583
 C3280 C 0.50663 -0.01692 -0.09125
 H3281 H 0.54754 0.01387 -0.16835
 H3282 H 0.56034 -0.03545 -0.16691
 H3283 H 0.57545 -0.03233 -0.19063
 H3284 H 0.56235 0.01709 -0.19227
 H3285 H 0.54643 -0.01261 -0.08758
 H3286 H 0.53902 -0.01060 -0.06078
 H3287 H 0.48988 -0.01645 -0.07277
 H3288 H 0.49758 -0.01846 -0.09980
 C3289 C 0.66764 0.58794 -0.02131
 C3290 C 0.66057 0.58024 -0.00889
 C3291 C 0.66757 0.58112 0.00551
 C3292 C 0.68152 0.58970 0.00751
 C3293 C 0.68870 0.59753 -0.00489
 C3294 C 0.68160 0.59651 -0.01934
 C3295 C 0.64605 0.57156 -0.01083
 C3296 C 0.63386 0.56432 -0.01214
 C3297 C 0.61951 0.55584 -0.01320
 C3298 C 0.60723 0.54862 -0.01356
 C3299 C 0.59253 0.54001 -0.01316
 C3300 C 0.58922 0.53013 -0.00074
 C3301 C 0.57460 0.52260 0.00046
 C3302 C 0.56296 0.52483 -0.01079
 C3303 C 0.56655 0.53442 -0.02351
 C3304 C 0.58123 0.54199 -0.02465
 H3305 H 0.66231 0.58740 -0.03250
 H3306 H 0.66223 0.57519 0.01521
 H3307 H 0.68677 0.59007 0.01874
 H3308 H 0.68669 0.60257 -0.02908
 H3309 H 0.59784 0.52849 0.00823
 H3310 H 0.57231 0.51528 0.01038
 H3311 H 0.55786 0.53645 -0.03233
 H3312 H 0.58363 0.54965 -0.03432
 C3313 C 0.17429 1.07480 0.48646
 C3314 C 0.15977 1.08147 0.49072
 C3315 C 0.15936 1.09670 0.49691
 C3316 C 0.17335 1.10521 0.49885
 C3317 C 0.18802 1.09862 0.49463
 C3318 C 0.18831 1.08330 0.48838
 C3319 C 0.14532 1.07263 0.48904
 C3320 C 0.13315 1.06532 0.48794
 C3321 C 0.11880 1.05681 0.48712
 C3322 C 0.10650 1.04960 0.48695
 C3323 C 0.09178 1.04103 0.48753
 C3324 C 0.08848 1.03137 0.50012
 C3325 C 0.07386 1.02386 0.50143
 C3326 C 0.06222 1.02587 0.49014
 C3327 C 0.06579 1.03526 0.47729
 C3328 C 0.08047 1.04283 0.47602
 H3329 H 0.17479 1.06299 0.48172
 H3330 H 0.14820 1.10201 0.50025
 H3331 H 0.17265 1.11705 0.50347
 H3332 H 0.19940 1.07779 0.48518
 H3333 H 0.09711 1.02989 0.50910
 H3334 H 0.07158 1.01670 0.51146
 H3335 H 0.05711 1.03713 0.46843
 H3336 H 0.08287 1.05031 0.46623
 C3337 C 0.16000 -0.09523 0.99997
 C3338 C 0.15951 -0.08192 1.00935
 C3339 C 0.17315 -0.07724 1.01697
 C3340 C 0.18722 -0.08581 1.01528
 C3341 C 0.18803 -0.09935 1.00583
 C3342 C 0.17403 -0.10383 0.99820
 C3343 C 0.14504 -0.07297 1.01093
 C3344 C 0.13289 -0.06551 1.01198
 C3345 C 0.11862 -0.05679 1.01281
 C3346 C 0.10641 -0.04936 1.01304
 C3347 C 0.09181 -0.04050 1.01261
 C3348 C 0.08029 -0.04246 1.02399
 C3349 C 0.06576 -0.03453 1.02290
 C3350 C 0.06255 -0.02458 1.01036
 C3351 C 0.07438 -0.02243 0.99920
 C3352 C 0.08886 -0.03033 1.00034
 H3353 H 0.14947 -0.09904 0.99406
 H3354 H 0.17297 -0.06684 1.02415
 H3355 H 0.19754 -0.08129 1.02099
 H3356 H 0.17352 -0.11436 0.99128
 H3357 H 0.08241 -0.05034 1.03354
 H3358 H 0.05691 -0.03652 1.03166
 H3359 H 0.07238 -0.01486 0.98941
 H3360 H 0.09766 -0.02871 0.99146
 C3361 C 0.66096 0.40501 0.50934
 C3362 C 0.66101 0.42116 0.50598
 C3363 C 0.67485 0.42821 0.50053
 C3364 C 0.68858 0.41919 0.49847
 C3365 C 0.68883 0.40278 0.50179
 C3366 C 0.67463 0.39591 0.50728
 C3367 C 0.64678 0.43040 0.50788
 C3368 C 0.63476 0.43801 0.50927
 C3369 C 0.62055 0.44678 0.51051
 C3370 C 0.60832 0.45415 0.51110
 C3371 C 0.59361 0.46282 0.51105
 C3372 C 0.59017 0.47290 0.49881
 C3373 C 0.57544 0.48033 0.49788
 C3374 C 0.56384 0.47781 0.50919
 C3375 C 0.56758 0.46807 0.52174
 C3376 C 0.58236 0.46059 0.52263
 H3377 H 0.65033 0.39941 0.51366
 H3378 H 0.67499 0.44071 0.49772
 H3379 H 0.69875 0.42516 0.49370
 H3380 H 0.67404 0.38363 0.51066
 H3381 H 0.59876 0.47472 0.48978
 H3382 H 0.57303 0.48777 0.48808
 H3383 H 0.55892 0.46580 0.53060
 H3384 H 0.58486 0.45278 0.53214
 C3385 C -0.16698 0.41261 0.50633
 C3386 C -0.16212 0.41869 0.49219
 C3387 C -0.17138 0.41606 0.47928
 C3388 C -0.18533 0.40731 0.48045
 C3389 C -0.19025 0.40101 0.49458
 C3390 C -0.18095 0.40385 0.50753
 C3391 C -0.14757 0.42745 0.49092
 C3392 C -0.13533 0.43470 0.48996
 C3393 C -0.12092 0.44310 0.48913
 C3394 C -0.10857 0.45020 0.48884
 C3395 C -0.09375 0.45859 0.48919
 C3396 C -0.08261 0.45684 0.47744
 C3397 C -0.06782 0.46417 0.47847
 C3398 C -0.06396 0.47327 0.49133
 C3399 C -0.07544 0.47527 0.50286
 C3400 C -0.09018 0.46799 0.50178
 H3401 H -0.15990 0.41453 0.51641
 H3402 H -0.16779 0.42075 0.46828
 H3403 H -0.19233 0.40556 0.47030
 H3404 H -0.18429 0.39903 0.51853
 H3405 H -0.08522 0.44955 0.46765
 H3406 H -0.05925 0.46231 0.46944
 H3407 H -0.07294 0.48221 0.51290
 H3408 H -0.09868 0.46943 0.51094
 C3409 C 0.33495 -0.09442 -0.01805
 C3410 C 0.33706 -0.08042 -0.00986
 C3411 C 0.32526 -0.07534 0.00026
 C3412 C 0.31145 -0.08421 0.00220
 C3413 C 0.30925 -0.09835 -0.00593
 C3414 C 0.32116 -0.10332 -0.01612
 C3415 C 0.35144 -0.07145 -0.01158
 C3416 C 0.36354 -0.06400 -0.01276
 C3417 C 0.37780 -0.05535 -0.01373
 C3418 C 0.39002 -0.04802 -0.01407
 C3419 C 0.40469 -0.03937 -0.01373
 C3420 C 0.40799 -0.02971 -0.00125
 C3421 C 0.42262 -0.02222 -0.00012
 C3422 C 0.43426 -0.02425 -0.01148
 C3423 C 0.43067 -0.03360 -0.02425
 C3424 C 0.41598 -0.04114 -0.02534
 H3425 H 0.34398 -0.09848 -0.02592
 H3426 H 0.32678 -0.06457 0.00673
 H3427 H 0.30262 -0.08014 0.01026
 H3428 H 0.31975 -0.11400 -0.02273
 H3429 H 0.39937 -0.02825 0.00781
 H3430 H 0.42492 -0.01509 0.00986
 H3431 H 0.43936 -0.03550 -0.03316
 H3432 H 0.41358 -0.04863 -0.03504
 C3433 C 0.32736 1.07774 0.49972
 C3434 C 0.33896 1.08305 0.50980
 C3435 C 0.33624 1.09675 0.51834
 C3436 C 0.32207 1.10515 0.51674
 C3437 C 0.31037 1.09997 0.50656
 C3438 C 0.31317 1.08611 0.49812
 C3439 C 0.35377 1.07466 0.51110
 C3440 C 0.36623 1.06770 0.51193
 C3441 C 0.38088 1.05960 0.51247
 C3442 C 0.39341 1.05273 0.51246
 C3443 C 0.40839 1.04455 0.51171
 C3444 C 0.41968 1.04634 0.52321
 C3445 C 0.43453 1.03907 0.52186
 C3446 C 0.43830 1.02996 0.50892
 C3447 C 0.42672 1.02799 0.49761
 C3448 C 0.41192 1.03522 0.49901
 H3449 H 0.32935 1.06720 0.49298
 H3450 H 0.34511 1.10098 0.52619
 H3451 H 0.32020 1.11563 0.52358
 H3452 H 0.30450 1.08191 0.49006
 H3453 H 0.41710 1.05357 0.53309
 H3454 H 0.44317 1.04090 0.53074
 H3455 H 0.42914 1.02104 0.48752
 H3456 H 0.40331 1.03374 0.49003
 C3457 C -0.17287 0.57607 1.00158
 C3458 C -0.16136 0.58116 1.01185
 C3459 C -0.16399 0.59489 1.02038
 C3460 C -0.17802 0.60351 1.01860
 C3461 C -0.18964 0.59853 1.00824
 C3462 C -0.18691 0.58466 0.99979
 C3463 C -0.14671 0.57250 1.01337
 C3464 C -0.13440 0.56531 1.01435
 C3465 C -0.11991 0.55694 1.01503
 C3466 C -0.10749 0.54986 1.01507
 C3467 C -0.09262 0.54148 1.01430
 C3468 C -0.08162 0.54245 1.02615
 C3469 C -0.06679 0.53514 1.02473
 C3470 C -0.06275 0.52683 1.01137
 C3471 C -0.07409 0.52560 0.99973
 C3472 C -0.08886 0.53286 1.00120
 H3473 H -0.17094 0.56551 0.99485
 H3474 H -0.15519 0.59896 1.02837
 H3475 H -0.17983 0.61399 1.02544
 H3476 H -0.19551 0.58060 0.99160
 H3477 H -0.08437 0.54912 1.03635
 H3478 H -0.05834 0.53638 1.03388
 H3479 H -0.07146 0.51928 0.98931
 H3480 H -0.09725 0.53202 0.99194
 C3481 C 0.01398 0.67218 0.56071
 C3482 C 0.02534 0.66138 0.56583
 C3483 C 0.03467 0.66496 0.57845
 C3484 C 0.03231 0.67914 0.58625
 C3485 C 0.02051 0.68983 0.58152
 C3486 C 0.01158 0.68634 0.56849
 C3487 C 0.02625 0.64604 0.55900
 C3488 C 0.02609 0.63303 0.55355
 C3489 C 0.02485 0.61777 0.54743
 C3490 C 0.02296 0.60475 0.54233
 C3491 C 0.01983 0.58935 0.53635
 C3492 C 0.02618 0.57589 0.54336
 C3493 C 0.02235 0.56087 0.53797
 C3494 C 0.01206 0.55918 0.52551
 C3495 C 0.00583 0.57283 0.51851
 C3496 C 0.00968 0.58780 0.52392
 H3497 H 0.00659 0.66941 0.55103
 H3498 H 0.04344 0.65661 0.58252
 H3499 H 0.03950 0.68163 0.59612
 H3500 H 0.00229 0.69424 0.56470
 H3501 H 0.03398 0.57701 0.55305
 H3502 H 0.02744 0.55062 0.54356
 H3503 H -0.00208 0.57197 0.50888
 H3504 H 0.00463 0.59817 0.51850
 C3505 C 0.53389 0.16795 0.07474
 C3506 C 0.52427 0.16458 0.06226
 C3507 C 0.51277 0.17545 0.05759
 C3508 C 0.51049 0.18944 0.06569
 C3509 C 0.51968 0.19266 0.07862
 C3510 C 0.53165 0.18195 0.08286
 C3511 C 0.52495 0.14931 0.05527
 C3512 C 0.52461 0.13632 0.04979
 C3513 C 0.52319 0.12104 0.04373
 C3514 C 0.52117 0.10798 0.03877
 C3515 C 0.51793 0.09251 0.03300
 C3516 C 0.50782 0.09082 0.02057
 C3517 C 0.50390 0.07578 0.01537
 C3518 C 0.51003 0.06221 0.02259
 C3519 C 0.52027 0.06404 0.03506
 C3520 C 0.52417 0.07912 0.04024
 H3521 H 0.54277 0.15955 0.07848
 H3522 H 0.50516 0.17284 0.04803
 H3523 H 0.50106 0.19735 0.06227
 H3524 H 0.53903 0.18425 0.09265
 H3525 H 0.50286 0.10114 0.01498
 H3526 H 0.49602 0.07482 0.00572
 H3527 H 0.52527 0.05385 0.04081
 H3528 H 0.53194 0.08034 0.04995
 C3529 C -0.02992 0.17627 0.93278
 C3530 C -0.01867 0.17240 0.94383
 C3531 C -0.00600 0.18258 0.94653
 C3532 C -0.00422 0.19630 0.93779
 C3533 C -0.01507 0.19991 0.92619
 C3534 C -0.02816 0.18997 0.92402
 C3535 C -0.01912 0.15721 0.95112
 C3536 C -0.01888 0.14416 0.95659
 C3537 C -0.01790 0.12864 0.96233
 C3538 C -0.01651 0.11526 0.96681
 C3539 C -0.01425 0.09925 0.97179
 C3540 C -0.00452 0.09604 0.98425
 C3541 C -0.00164 0.08043 0.98868
 C3542 C -0.00845 0.06781 0.98064
 C3543 C -0.01829 0.07118 0.96814
 C3544 C -0.02115 0.08682 0.96374
 H3545 H -0.03972 0.16841 0.93057
 H3546 H 0.00285 0.17958 0.95496
 H3547 H 0.00605 0.20364 0.93959
 H3548 H -0.03680 0.19260 0.91530
 H3549 H 0.00095 0.10560 0.99047
 H3550 H 0.00597 0.07828 0.99836
 H3551 H -0.02379 0.06176 0.96176
 H3552 H -0.02864 0.08922 0.95401
 C3553 C 0.46478 0.67086 0.42267
 C3554 C 0.47531 0.66639 0.43415
 C3555 C 0.48787 0.67630 0.43798
 C3556 C 0.49020 0.69043 0.43005
 C3557 C 0.47998 0.69482 0.41815
 C3558 C 0.46707 0.68503 0.41472
 C3559 C 0.47420 0.65107 0.44111
 C3560 C 0.47416 0.63806 0.44670
 C3561 C 0.47514 0.62278 0.45299
 C3562 C 0.47678 0.60972 0.45822
 C3563 C 0.47962 0.59424 0.46436
 C3564 C 0.48929 0.59250 0.47714
 C3565 C 0.49295 0.57744 0.48265
 C3566 C 0.48701 0.56390 0.47541
 C3567 C 0.47715 0.56579 0.46264
 C3568 C 0.47351 0.58089 0.45714
 H3569 H 0.45506 0.66322 0.41959
 H3570 H 0.49617 0.67284 0.44676
 H3571 H 0.50037 0.69759 0.43281
 H3572 H 0.45890 0.68821 0.40574
 H3573 H 0.49415 0.60279 0.48273
 H3574 H 0.50054 0.57644 0.49252
 H3575 H 0.47231 0.55563 0.45684
 H3576 H 0.46608 0.58215 0.44718
 C3577 C 0.52620 0.82776 0.43282
 C3578 C 0.51569 0.84039 0.43076
 C3579 C 0.50272 0.83878 0.42109
 C3580 C 0.50018 0.82458 0.41351
 C3581 C 0.51060 0.81177 0.41551
 C3582 C 0.52369 0.81350 0.42520
 C3583 C 0.51789 0.85504 0.43861
 C3584 C 0.51893 0.86759 0.44490
 C3585 C 0.51918 0.88249 0.45192
 C3586 C 0.51862 0.89537 0.45763
 C3587 C 0.51710 0.91082 0.46415
 C3588 C 0.50776 0.91297 0.47717
 C3589 C 0.50512 0.92814 0.48283
 C3590 C 0.51176 0.94139 0.47548
 C3591 C 0.52137 0.93907 0.46253
 C3592 C 0.52399 0.92386 0.45689
 H3593 H 0.53625 0.82891 0.44033
 H3594 H 0.49455 0.84853 0.41942
 H3595 H 0.49017 0.82368 0.40592
 H3596 H 0.53182 0.80377 0.42703
 H3597 H 0.50229 0.90293 0.48278
 H3598 H 0.49771 0.92949 0.49284
 H3599 H 0.52674 0.94899 0.45665
 H3600 H 0.53115 0.92230 0.44674
 C3601 C 0.02969 0.32927 0.93291
 C3602 C 0.02813 0.34352 0.92489
 C3603 C 0.02404 0.34341 0.90947
 C3604 C 0.02093 0.32913 0.90220
 C3605 C 0.02182 0.31478 0.91032
 C3606 C 0.02661 0.31494 0.92565
 C3607 C 0.02894 0.35832 0.93276
 C3608 C 0.02858 0.37084 0.93918
 C3609 C 0.02704 0.38555 0.94644
 C3610 C 0.02491 0.39812 0.95247
 C3611 C 0.02155 0.41305 0.95947
 C3612 C 0.01110 0.41376 0.97184
 C3613 C 0.00707 0.42834 0.97819
 C3614 C 0.01343 0.44242 0.97219
 C3615 C 0.02402 0.44155 0.95978
 C3616 C 0.02802 0.42694 0.95346
 H3617 H 0.03269 0.32927 0.94491
 H3618 H 0.02272 0.35440 0.90319
 H3619 H 0.01748 0.32932 0.89033
 H3620 H 0.02726 0.30407 0.93219
 H3621 H 0.00595 0.40305 0.97649
 H3622 H -0.00107 0.42856 0.98776
 H3623 H 0.02922 0.45214 0.95495
 H3624 H 0.03606 0.42650 0.94382
 C3625 C 0.47610 0.32214 0.06099
 C3626 C 0.47623 0.33661 0.06866
 C3627 C 0.47896 0.33703 0.08436
 C3628 C 0.48207 0.32308 0.09232
 C3629 C 0.48251 0.30853 0.08464
 C3630 C 0.47917 0.30812 0.06896
 C3631 C 0.47517 0.35118 0.06034
 C3632 C 0.47523 0.36368 0.05378
 C3633 C 0.47633 0.37852 0.04661
 C3634 C 0.47803 0.39134 0.04090
 C3635 C 0.48083 0.40673 0.03457
 C3636 C 0.49106 0.40847 0.02212
 C3637 C 0.49471 0.42354 0.01662
 C3638 C 0.48820 0.43705 0.02358
 C3639 C 0.47779 0.43514 0.03601
 C3640 C 0.47415 0.42005 0.04147
 H3641 H 0.47415 0.32174 0.04880
 H3642 H 0.47915 0.34821 0.09037
 H3643 H 0.48439 0.32367 0.10444
 H3644 H 0.47955 0.29707 0.06277
 H3645 H 0.49638 0.39819 0.01680
 H3646 H 0.50272 0.42458 0.00701
 H3647 H 0.47247 0.44527 0.04156
 H3648 H 0.46631 0.41880 0.05119
 C3649 C -0.00141 0.82819 0.56566
 C3650 C -0.01675 0.83433 0.56504
 C3651 C -0.02923 0.82624 0.57205
 C3652 C -0.02628 0.81217 0.57998
 C3653 C -0.01079 0.80620 0.58103
 C3654 C 0.00157 0.81421 0.57360
 C3655 C -0.01926 0.84945 0.55802
 C3656 C -0.02036 0.86239 0.55243
 C3657 C -0.02046 0.87770 0.54616
 C3658 C -0.01958 0.89084 0.54097
 C3659 C -0.01749 0.90645 0.53490
 C3660 C -0.02396 0.91951 0.54242
 C3661 C -0.02085 0.93478 0.53709
 C3662 C -0.01115 0.93711 0.52419
 C3663 C -0.00485 0.92384 0.51664
 C3664 C -0.00799 0.90862 0.52199
 H3665 H 0.00832 0.83441 0.56026
 H3666 H -0.04113 0.83098 0.57169
 H3667 H -0.03598 0.80627 0.58572
 H3668 H 0.01356 0.80973 0.57407
 H3669 H -0.03123 0.91791 0.55251
 H3670 H -0.02596 0.94473 0.54311
 H3671 H 0.00261 0.92519 0.50666
 H3672 H -0.00283 0.89855 0.51619
 C3673 C 0.24972 0.30030 0.07476
 C3674 C 0.26043 0.30557 0.08573
 C3675 C 0.26892 0.31951 0.08317
 C3676 C 0.26667 0.32821 0.06976
 C3677 C 0.25584 0.32310 0.05870
 C3678 C 0.24746 0.30898 0.06131
 C3679 C 0.26225 0.29714 0.09994
 C3680 C 0.26364 0.29063 0.11213
 C3681 C 0.26501 0.28378 0.12680
 C3682 C 0.26583 0.27874 0.13966
 C3683 C 0.26625 0.27391 0.15543
 C3684 C 0.26519 0.28551 0.16670
 C3685 C 0.26425 0.28120 0.18203
 C3686 C 0.26434 0.26517 0.18642
 C3687 C 0.26598 0.25354 0.17507
 C3688 C 0.26685 0.25790 0.15963
 H3689 H 0.24299 0.28959 0.07667
 H3690 H 0.27721 0.32372 0.09158
 H3691 H 0.27349 0.33887 0.06800
 H3692 H 0.23893 0.30482 0.05310
 H3693 H 0.26473 0.29792 0.16360
 H3694 H 0.26312 0.29049 0.19044
 H3695 H 0.26604 0.24110 0.17807
 H3696 H 0.26764 0.24881 0.15100
 C3697 C 0.76580 0.80017 0.57426
 C3698 C 0.75798 0.80489 0.58759
 C3699 C 0.74795 0.81808 0.58726
 C3700 C 0.74586 0.82663 0.57374
 C3701 C 0.75379 0.82211 0.56031
 C3702 C 0.76370 0.80870 0.56069
 C3703 C 0.76049 0.79658 0.60177
 C3704 C 0.76238 0.79020 0.61397
 C3705 C 0.76423 0.78353 0.62865
 C3706 C 0.76540 0.77865 0.64155
 C3707 C 0.76617 0.77400 0.65736
 C3708 C 0.76703 0.75805 0.66173
 C3709 C 0.76640 0.75385 0.67722
 C3710 C 0.76475 0.76558 0.68847
 C3711 C 0.76442 0.78157 0.68391
 C3712 C 0.76512 0.78571 0.66852
 H3713 H 0.77365 0.79003 0.57439
 H3714 H 0.74181 0.82184 0.59750
 H3715 H 0.73800 0.83676 0.57378
 H3716 H 0.77013 0.80503 0.55060
 H3717 H 0.76780 0.74887 0.65317
 H3718 H 0.76664 0.74144 0.68035
 H3719 H 0.76328 0.79093 0.69223
 H3720 H 0.76446 0.79808 0.66530
 C3721 C 0.24807 0.69868 0.57610
 C3722 C 0.23757 0.69318 0.58729
 C3723 C 0.22904 0.67929 0.58479
 C3724 C 0.23108 0.67085 0.57125
 C3725 C 0.24173 0.67616 0.55998
 C3726 C 0.25012 0.69026 0.56251
 C3727 C 0.23605 0.70129 0.60166
 C3728 C 0.23496 0.70755 0.61397
 C3729 C 0.23401 0.71416 0.62872
 C3730 C 0.23361 0.71907 0.64162
 C3731 C 0.23378 0.72389 0.65737
 C3732 C 0.23654 0.71247 0.66862
 C3733 C 0.23806 0.71690 0.68384
 C3734 C 0.23684 0.73290 0.68812
 C3735 C 0.23350 0.74429 0.67682
 C3736 C 0.23205 0.73980 0.66150
 H3737 H 0.25484 0.70935 0.57795
 H3738 H 0.22089 0.67490 0.59337
 H3739 H 0.22425 0.66020 0.56956
 H3740 H 0.25852 0.69458 0.55414
 H3741 H 0.23789 0.70013 0.66558
 H3742 H 0.24052 0.70779 0.69221
 H3743 H 0.23254 0.75669 0.67973
 H3744 H 0.22993 0.74876 0.65288
 C3745 C 0.72767 0.18042 0.08300
 C3746 C 0.73631 0.19425 0.08548
 C3747 C 0.74686 0.19965 0.07429
 C3748 C 0.74888 0.19117 0.06074
 C3749 C 0.74042 0.17711 0.05825
 C3750 C 0.72969 0.17191 0.06949
 C3751 C 0.73490 0.20234 0.09985
 C3752 C 0.73392 0.20854 0.11219
 C3753 C 0.73312 0.21505 0.12699
 C3754 C 0.73287 0.21983 0.13992
 C3755 C 0.73322 0.22448 0.15571
 C3756 C 0.73118 0.24029 0.16005
 C3757 C 0.73272 0.24462 0.17539
 C3758 C 0.73643 0.23316 0.18652
 C3759 C 0.73800 0.21726 0.18203
 C3760 C 0.73640 0.21299 0.16678
 H3761 H 0.71949 0.17610 0.09158
 H3762 H 0.75370 0.21027 0.07613
 H3763 H 0.75734 0.19539 0.05237
 H3764 H 0.72282 0.16129 0.06782
 H3765 H 0.72872 0.24930 0.15155
 H3766 H 0.73147 0.25696 0.17846
 H3767 H 0.74075 0.20809 0.19026
 H3768 H 0.73799 0.20072 0.16358
 C3769 C 0.76084 0.20075 0.92711
 C3770 C 0.75632 0.19384 0.91333
 C3771 C 0.74992 0.17859 0.91335
 C3772 C 0.74808 0.17026 0.92703
 C3773 C 0.75261 0.17705 0.94095
 C3774 C 0.75901 0.19241 0.94084
 C3775 C 0.75824 0.20218 0.89908
 C3776 C 0.75958 0.20854 0.88680
 C3777 C 0.76074 0.21514 0.87201
 C3778 C 0.76130 0.21991 0.85904
 C3779 C 0.76134 0.22439 0.84317
 C3780 C 0.75790 0.21290 0.83229
 C3781 C 0.75701 0.21696 0.81690
 C3782 C 0.75955 0.23266 0.81205
 C3783 C 0.76337 0.24413 0.82302
 C3784 C 0.76421 0.24001 0.83852
 H3785 H 0.76577 0.21255 0.92725
 H3786 H 0.74643 0.17310 0.90275
 H3787 H 0.74336 0.15838 0.92666
 H3788 H 0.76245 0.19804 0.95137
 H3789 H 0.75566 0.20079 0.83573
 H3790 H 0.75413 0.20777 0.80882
 H3791 H 0.76539 0.25630 0.81969
 H3792 H 0.76688 0.24902 0.84686
 C3793 C 0.25175 0.67807 0.41465
 C3794 C 0.25856 0.69313 0.41457
 C3795 C 0.26310 0.70004 0.42834
 C3796 C 0.26089 0.69189 0.44212
 C3797 C 0.25410 0.67669 0.44229
 C3798 C 0.24954 0.66991 0.42838
 C3799 C 0.26090 0.70130 0.40027
 C3800 C 0.26257 0.70758 0.38800
 C3801 C 0.26411 0.71421 0.37324
 C3802 C 0.26496 0.71911 0.36032
 C3803 C 0.26526 0.72391 0.34453
 C3804 C 0.26650 0.73988 0.34032
 C3805 C 0.26535 0.74433 0.32493
 C3806 C 0.26280 0.73284 0.31363
 C3807 C 0.26210 0.71681 0.31800
 C3808 C 0.26333 0.71242 0.33330
 H3809 H 0.24824 0.67257 0.40406
 H3810 H 0.26834 0.71171 0.42843
 H3811 H 0.26438 0.69751 0.45264
 H3812 H 0.24453 0.65815 0.42806
 H3813 H 0.26796 0.74889 0.34893
 H3814 H 0.26588 0.75676 0.32195
 H3815 H 0.26026 0.70763 0.30963
 H3816 H 0.26235 0.70004 0.33640
 C3817 C 0.74777 0.81999 0.41579
 C3818 C 0.74076 0.80502 0.41604
 C3819 C 0.73573 0.79849 0.42992
 C3820 C 0.73762 0.80695 0.44348
 C3821 C 0.74459 0.82206 0.44333
 C3822 C 0.74967 0.82845 0.42931
 C3823 C 0.73865 0.79658 0.40195
 C3824 C 0.73714 0.79009 0.38982
 C3825 C 0.73574 0.78328 0.37520
 C3826 C 0.73498 0.77828 0.36237
 C3827 C 0.73472 0.77346 0.34663
 C3828 C 0.73372 0.75748 0.34254
 C3829 C 0.73480 0.75308 0.32716
 C3830 C 0.73703 0.76463 0.31575
 C3831 C 0.73752 0.78066 0.32001
 C3832 C 0.73637 0.78500 0.33529
 H3833 H 0.75166 0.82519 0.40511
 H3834 H 0.73033 0.78690 0.43026
 H3835 H 0.73375 0.80162 0.45410
 H3836 H 0.75485 0.84013 0.42874
 H3837 H 0.73247 0.74843 0.35124
 H3838 H 0.73442 0.74065 0.32426
 H3839 H 0.73911 0.78989 0.31155
 H3840 H 0.73715 0.79739 0.33829
 C3841 C 0.22550 0.31219 0.92200
 C3842 C 0.23825 0.30405 0.91548
 C3843 C 0.25304 0.30443 0.92254
 C3844 C 0.25512 0.31302 0.93598
 C3845 C 0.24241 0.32138 0.94254
 C3846 C 0.22754 0.32077 0.93544
 C3847 C 0.23637 0.29607 0.90111
 C3848 C 0.23498 0.28989 0.88882
 C3849 C 0.23370 0.28334 0.87409
 C3850 C 0.23302 0.27850 0.86119
 C3851 C 0.23287 0.27379 0.84542
 C3852 C 0.23518 0.28531 0.83417
 C3853 C 0.23640 0.28100 0.81889
 C3854 C 0.23532 0.26503 0.81453
 C3855 C 0.23243 0.25352 0.82585
 C3856 C 0.23128 0.25789 0.84123
 H3857 H 0.21403 0.31211 0.91656
 H3858 H 0.26302 0.29823 0.91757
 H3859 H 0.26666 0.31309 0.94126
 H3860 H 0.21757 0.32725 0.94005
 H3861 H 0.23641 0.29764 0.83726
 H3862 H 0.23850 0.29021 0.81050
 H3863 H 0.23159 0.24114 0.82288
 H3864 H 0.22951 0.24885 0.84986
 C3865 C 0.84494 0.41070 0.76589
 C3866 C 0.83033 0.40911 0.75867
 C3867 C 0.82441 0.42160 0.74982
 C3868 C 0.83308 0.43559 0.74817
 C3869 C 0.84783 0.43727 0.75531
 C3870 C 0.85362 0.42466 0.76425
 C3871 C 0.82160 0.39452 0.76003
 C3872 C 0.81441 0.38223 0.76093
 C3873 C 0.80609 0.36774 0.76157
 C3874 C 0.79906 0.35533 0.76160
 C3875 C 0.79074 0.34048 0.76084
 C3876 C 0.78224 0.33681 0.74770
 C3877 C 0.77495 0.32210 0.74630
 C3878 C 0.77602 0.31073 0.75805
 C3879 C 0.78426 0.31467 0.77142
 C3880 C 0.79161 0.32944 0.77278
 H3881 H 0.84965 0.40113 0.77278
 H3882 H 0.81316 0.42049 0.74410
 H3883 H 0.82836 0.44498 0.74108
 H3884 H 0.86481 0.42565 0.77010
 H3885 H 0.78148 0.34523 0.73839
 H3886 H 0.76868 0.31955 0.73587
 H3887 H 0.78538 0.30620 0.78066
 H3888 H 0.79819 0.33213 0.78300
 C3889 C 0.33781 0.91303 0.24567
 C3890 C 0.32903 0.91039 0.25893
 C3891 C 0.32884 0.92186 0.27031
 C3892 C 0.33744 0.93586 0.26853
 C3893 C 0.34664 0.93886 0.25521
 C3894 C 0.34647 0.92697 0.24379
 C3895 C 0.32023 0.89590 0.26078
 C3896 C 0.31294 0.88370 0.26204
 C3897 C 0.30445 0.86934 0.26307
 C3898 C 0.29724 0.85703 0.26343
 C3899 C 0.28868 0.84230 0.26308
 C3900 C 0.29076 0.83084 0.27450
 C3901 C 0.28319 0.81616 0.27343
 C3902 C 0.27350 0.81273 0.26086
 C3903 C 0.27121 0.82451 0.24967
 C3904 C 0.27873 0.83914 0.25079
 H3905 H 0.33790 0.90431 0.23665
 H3906 H 0.32215 0.91991 0.28071
 H3907 H 0.33733 0.94376 0.27816
 H3908 H 0.35235 0.92844 0.23294
 H3909 H 0.29847 0.83313 0.28406
 H3910 H 0.28528 0.80735 0.28220
 H3911 H 0.26382 0.82235 0.23986
 H3912 H 0.27702 0.84789 0.24188
 C3913 C 0.17466 0.92429 0.73661
 C3914 C 0.16815 0.90983 0.74125
 C3915 C 0.15298 0.90951 0.74766
 C3916 C 0.14435 0.92354 0.74944
 C3917 C 0.15079 0.93815 0.74482
 C3918 C 0.16605 0.93834 0.73837
 C3919 C 0.17710 0.89536 0.73967
 C3920 C 0.18455 0.88320 0.73860
 C3921 C 0.19326 0.86890 0.73777
 C3922 C 0.20067 0.85667 0.73753
 C3923 C 0.20950 0.84204 0.73799
 C3924 C 0.21956 0.83900 0.75027
 C3925 C 0.22738 0.82448 0.75146
 C3926 C 0.22530 0.81268 0.74035
 C3927 C 0.21549 0.81599 0.72780
 C3928 C 0.20762 0.83057 0.72666
 H3929 H 0.18643 0.92471 0.73171
 H3930 H 0.14779 0.89841 0.75129
 H3931 H 0.13256 0.92293 0.75423
 H3932 H 0.17144 0.94938 0.73487
 H3933 H 0.22112 0.84776 0.75911
 H3934 H 0.23486 0.82241 0.76125
 H3935 H 0.21355 0.80718 0.71908
 H3936 H 0.19984 0.83277 0.71710
 C3937 C 0.65281 0.40982 0.24588
 C3938 C 0.66814 0.41008 0.23984
 C3939 C 0.67493 0.42454 0.23560
 C3940 C 0.66643 0.43865 0.23739
 C3941 C 0.65101 0.43851 0.24350
 C3942 C 0.64430 0.42391 0.24770
 C3943 C 0.67699 0.39555 0.23827
 C3944 C 0.68435 0.38333 0.23724
 C3945 C 0.69294 0.36897 0.23645
 C3946 C 0.70025 0.35668 0.23627
 C3947 C 0.70895 0.34198 0.23678
 C3948 C 0.71875 0.33877 0.24921
 C3949 C 0.72646 0.32419 0.25043
 C3950 C 0.72451 0.31250 0.23920
 C3951 C 0.71495 0.31597 0.22651
 C3952 C 0.70719 0.33061 0.22534
 H3953 H 0.64742 0.39871 0.24920
 H3954 H 0.68682 0.42492 0.23099
 H3955 H 0.67201 0.44969 0.23421
 H3956 H 0.63238 0.42335 0.25222
 H3957 H 0.72022 0.34746 0.25814
 H3958 H 0.73374 0.32200 0.26034
 H3959 H 0.71311 0.30724 0.21770
 H3960 H 0.69961 0.33293 0.21567
 C3961 C 0.65550 0.58563 0.26894
 C3962 C 0.66966 0.58793 0.26094
 C3963 C 0.67496 0.57636 0.25073
 C3964 C 0.66614 0.56259 0.24848
 C3965 C 0.65184 0.56020 0.25641
 C3966 C 0.64666 0.57188 0.26670
 C3967 C 0.67857 0.60229 0.26294
 C3968 C 0.68599 0.61439 0.26432
 C3969 C 0.69462 0.62863 0.26547
 C3970 C 0.70196 0.64085 0.26591
 C3971 C 0.71067 0.65550 0.26561
 C3972 C 0.70857 0.66686 0.27705
 C3973 C 0.71617 0.68154 0.27593
 C3974 C 0.72588 0.68507 0.26329
 C3975 C 0.72824 0.67337 0.25212
 C3976 C 0.72070 0.65874 0.25329
 H3977 H 0.65127 0.59447 0.27688
 H3978 H 0.68586 0.57803 0.24440
 H3979 H 0.67038 0.55395 0.24035
 H3980 H 0.63584 0.57031 0.27316
 H3981 H 0.70079 0.66452 0.28663
 H3982 H 0.71402 0.69030 0.28469
 H3983 H 0.73566 0.67562 0.24226
 H3984 H 0.72242 0.65007 0.24436
 C3985 C 0.17267 0.07676 0.74992
 C3986 C 0.16726 0.08833 0.76008
 C3987 C 0.15321 0.08585 0.76821
 C3988 C 0.14460 0.07192 0.76617
 C3989 C 0.14991 0.06024 0.75594
 C3990 C 0.16409 0.06281 0.74787
 C3991 C 0.17594 0.10286 0.76190
 C3992 C 0.18318 0.11506 0.76315
 C3993 C 0.19165 0.12942 0.76417
 C3994 C 0.19888 0.14171 0.76451
 C3995 C 0.20751 0.15640 0.76409
 C3996 C 0.21742 0.15963 0.75167
 C3997 C 0.22503 0.17422 0.75048
 C3998 C 0.22286 0.18589 0.76172
 C3999 C 0.21322 0.18239 0.77441
 C4000 C 0.20556 0.16774 0.77556
 H4001 H 0.18349 0.07857 0.74349
 H4002 H 0.14889 0.09470 0.77611
 H4003 H 0.13387 0.07022 0.77274
 H4004 H 0.16841 0.05416 0.73979
 H4005 H 0.21903 0.15097 0.74272
 H4006 H 0.23238 0.17644 0.74057
 H4007 H 0.21123 0.19112 0.78323
 H4008 H 0.19788 0.16540 0.78521
 C4009 C 0.34553 0.08756 0.24434
 C4010 C 0.32928 0.08704 0.24150
 C4011 C 0.32166 0.07239 0.24067
 C4012 C 0.33025 0.05835 0.24264
 C4013 C 0.34660 0.05875 0.24551
 C4014 C 0.35413 0.07355 0.24633
 C4015 C 0.32042 0.10155 0.23972
 C4016 C 0.31311 0.11378 0.23848
 C4017 C 0.30466 0.12822 0.23745
 C4018 C 0.29753 0.14061 0.23708
 C4019 C 0.28913 0.15549 0.23741
 C4020 C 0.29115 0.16672 0.22576
 C4021 C 0.28388 0.18161 0.22685
 C4022 C 0.27457 0.18548 0.23966
 C4023 C 0.27227 0.17391 0.25106
 C4024 C 0.27949 0.15907 0.24992
 H4025 H 0.35157 0.09882 0.24501
 H4026 H 0.30907 0.07182 0.23857
 H4027 H 0.32405 0.04718 0.24212
 H4028 H 0.36672 0.07430 0.24829
 H4029 H 0.29862 0.16411 0.21603
 H4030 H 0.28597 0.19024 0.21791
 H4031 H 0.26516 0.17641 0.26106
 H4032 H 0.27784 0.15051 0.25901
 C4033 C 0.83339 0.57827 0.73133
 C4034 C 0.83051 0.58765 0.74417
 C4035 C 0.83620 0.58279 0.75841
 C4036 C 0.84486 0.56871 0.75980
 C4037 C 0.84798 0.55930 0.74693
 C4038 C 0.84204 0.56421 0.73269
 C4039 C 0.82190 0.60234 0.74269
 C4040 C 0.81479 0.61470 0.74158
 C4041 C 0.80655 0.62926 0.74059
 C4042 C 0.79956 0.64173 0.74020
 C4043 C 0.79128 0.65668 0.74049
 C4044 C 0.78175 0.66039 0.75305
 C4045 C 0.77454 0.67523 0.75409
 C4046 C 0.77673 0.68668 0.74256
 C4047 C 0.78596 0.68270 0.72973
 C4048 C 0.79322 0.66780 0.72874
 H4049 H 0.82900 0.58186 0.72026
 H4050 H 0.83408 0.58995 0.76843
 H4051 H 0.84940 0.56538 0.77088
 H4052 H 0.84402 0.55714 0.72260
 H4053 H 0.78015 0.65192 0.76222
 H4054 H 0.76749 0.67783 0.76411
 H4055 H 0.78796 0.69124 0.72069
 H4056 H 0.80061 0.66508 0.71897
 C4057 C 0.92653 0.77779 0.18890
 C4058 C 0.91206 0.77640 0.18153
 C4059 C 0.91165 0.77369 0.16589
 C4060 C 0.92563 0.77181 0.15765
 C4061 C 0.94061 0.77250 0.16488
 C4062 C 0.94062 0.77597 0.18073
 C4063 C 0.89757 0.77641 0.19005
 C4064 C 0.88517 0.77559 0.19674
 C4065 C 0.87045 0.77376 0.20401
 C4066 C 0.85774 0.77159 0.20980
 C4067 C 0.84247 0.76840 0.21623
 C4068 C 0.82898 0.77491 0.20951
 C4069 C 0.81403 0.77110 0.21517
 C4070 C 0.81240 0.76066 0.22763
 C4071 C 0.82608 0.75428 0.23438
 C4072 C 0.84102 0.75811 0.22867
 H4073 H 0.92694 0.78005 0.20105
 H4074 H 0.90043 0.77241 0.16011
 H4075 H 0.92426 0.76865 0.14583
 H4076 H 0.95139 0.77772 0.18704
 H4077 H 0.83000 0.78282 0.19980
 H4078 H 0.80377 0.77631 0.20977
 H4079 H 0.82526 0.74625 0.24400
 H4080 H 0.85142 0.75293 0.23387
 C4081 C 0.41780 0.27708 0.67265
 C4082 C 0.41425 0.26626 0.68424
 C4083 C 0.42486 0.25408 0.68774
 C4084 C 0.43885 0.25248 0.67940
 C4085 C 0.44234 0.26304 0.66744
 C4086 C 0.43179 0.27551 0.66429
 C4087 C 0.39920 0.26687 0.69178
 C4088 C 0.38639 0.26682 0.69774
 C4089 C 0.37126 0.26611 0.70436
 C4090 C 0.35825 0.26498 0.70977
 C4091 C 0.34269 0.26303 0.71601
 C4092 C 0.34045 0.25336 0.72879
 C4093 C 0.32525 0.25077 0.73446
 C4094 C 0.31208 0.25780 0.72737
 C4095 C 0.31450 0.26762 0.71457
 C4096 C 0.32973 0.27020 0.70893
 H4097 H 0.40961 0.28652 0.66984
 H4098 H 0.42212 0.24556 0.69662
 H4099 H 0.44666 0.24266 0.68195
 H4100 H 0.43428 0.28394 0.65527
 H4101 H 0.35043 0.24770 0.73428
 H4102 H 0.32383 0.24317 0.74434
 H4103 H 0.30465 0.27328 0.70888
 H4104 H 0.33138 0.27764 0.69897
 C4105 C 0.42303 0.71881 0.82182
 C4106 C 0.41984 0.72890 0.80953
 C4107 C 0.43064 0.74069 0.80546
 C4108 C 0.44434 0.74277 0.81400
 C4109 C 0.44734 0.73311 0.82675
 C4110 C 0.43673 0.72087 0.83038
 C4111 C 0.40477 0.72835 0.80219
 C4112 C 0.39186 0.72865 0.79657
 C4113 C 0.37654 0.72983 0.79056
 C4114 C 0.36333 0.73145 0.78584
 C4115 C 0.34751 0.73401 0.78060
 C4116 C 0.34478 0.74396 0.76811
 C4117 C 0.32935 0.74718 0.76348
 C4118 C 0.31644 0.74050 0.77134
 C4119 C 0.31934 0.73042 0.78384
 C4120 C 0.33480 0.72723 0.78844
 H4121 H 0.41468 0.70971 0.82509
 H4122 H 0.42817 0.74866 0.79606
 H4123 H 0.45219 0.75241 0.81105
 H4124 H 0.43886 0.71313 0.84002
 H4125 H 0.35458 0.74936 0.76205
 H4126 H 0.32755 0.75495 0.75380
 H4127 H 0.30969 0.72500 0.79008
 H4128 H 0.33682 0.71958 0.79818
 C4129 C 0.92198 0.21886 0.32132
 C4130 C 0.91849 0.22906 0.30920
 C4131 C 0.92909 0.24101 0.30510
 C4132 C 0.94291 0.24313 0.31343
 C4133 C 0.94624 0.23334 0.32601
 C4134 C 0.93581 0.22095 0.32967
 C4135 C 0.90333 0.22838 0.30203
 C4136 C 0.89037 0.22856 0.29650
 C4137 C 0.87502 0.22960 0.29055
 C4138 C 0.86181 0.23114 0.28579
 C4139 C 0.84604 0.23366 0.28041
 C4140 C 0.84343 0.24362 0.26792
 C4141 C 0.82805 0.24680 0.26313
 C4142 C 0.81507 0.24007 0.27082
 C4143 C 0.81784 0.22997 0.28334
 C4144 C 0.83325 0.22681 0.28811
 H4145 H 0.91379 0.20962 0.32461
 H4146 H 0.92638 0.24907 0.29582
 H4147 H 0.95063 0.25288 0.31047
 H4148 H 0.93819 0.21310 0.33918
 H4149 H 0.85328 0.24905 0.26197
 H4150 H 0.82635 0.25459 0.25344
 H4151 H 0.80813 0.22451 0.28946
 H4152 H 0.83519 0.21915 0.29786
 C4153 C 0.09001 0.27494 0.33557
 C4154 C 0.08992 0.27828 0.31995
 C4155 C 0.07564 0.27868 0.31199
 C4156 C 0.06150 0.27524 0.31956
 C4157 C 0.06159 0.27121 0.33513
 C4158 C 0.07593 0.27144 0.34314
 C4159 C 0.10465 0.27942 0.31192
 C4160 C 0.11723 0.27928 0.30552
 C4161 C 0.13208 0.27790 0.29844
 C4162 C 0.14483 0.27581 0.29272
 C4163 C 0.16002 0.27239 0.28625
 C4164 C 0.16121 0.26218 0.27380
 C4165 C 0.17604 0.25785 0.26815
 C4166 C 0.18987 0.26365 0.27496
 C4167 C 0.18852 0.27405 0.28740
 C4168 C 0.17367 0.27836 0.29301
 H4169 H 0.10103 0.27451 0.34180
 H4170 H 0.07551 0.28109 0.29984
 H4171 H 0.05061 0.27503 0.31313
 H4172 H 0.07626 0.26860 0.35518
 H4173 H 0.15068 0.25740 0.26859
 H4174 H 0.17664 0.24987 0.25854
 H4175 H 0.19891 0.27883 0.29283
 H4176 H 0.17284 0.28618 0.30274
 C4177 C 0.59063 0.77521 0.83763
 C4178 C 0.59071 0.77827 0.82195
 C4179 C 0.57653 0.77851 0.81383
 C4180 C 0.56231 0.77518 0.82130
 C4181 C 0.56222 0.77142 0.83693
 C4182 C 0.57646 0.77182 0.84509
 C4183 C 0.60553 0.77930 0.81406
 C4184 C 0.61815 0.77909 0.80776
 C4185 C 0.63305 0.77765 0.80079
 C4186 C 0.64584 0.77554 0.79515
 C4187 C 0.66108 0.77216 0.78876
 C4188 C 0.66239 0.76175 0.77647
 C4189 C 0.67726 0.75755 0.77085
 C4190 C 0.69101 0.76370 0.77752
 C4191 C 0.68954 0.77426 0.78982
 C4192 C 0.67464 0.77844 0.79540
 H4193 H 0.60158 0.77491 0.84398
 H4194 H 0.57653 0.78071 0.80165
 H4195 H 0.55150 0.77483 0.81475
 H4196 H 0.57666 0.76920 0.85719
 H4197 H 0.65192 0.75673 0.77136
 H4198 H 0.67796 0.74944 0.76135
 H4199 H 0.69987 0.77930 0.79514
 H4200 H 0.67372 0.78642 0.80500
 C4201 C 0.57603 0.23325 0.68396
 C4202 C 0.58867 0.22668 0.67582
 C4203 C 0.58668 0.22223 0.66061
 C4204 C 0.57221 0.22477 0.65342
 C4205 C 0.55960 0.23188 0.66136
 C4206 C 0.56156 0.23582 0.67679
 C4207 C 0.60400 0.22590 0.68267
 C4208 C 0.61689 0.22608 0.68835
 C4209 C 0.63194 0.22720 0.69496
 C4210 C 0.64473 0.22886 0.70061
 C4211 C 0.65987 0.23155 0.70737
 C4212 C 0.67343 0.22450 0.70123
 C4213 C 0.68821 0.22764 0.70753
 C4214 C 0.68957 0.23793 0.72005
 C4215 C 0.67583 0.24490 0.72615
 C4216 C 0.66108 0.24173 0.71982
 H4217 H 0.57749 0.23680 0.69573
 H4218 H 0.59646 0.21726 0.65419
 H4219 H 0.57109 0.22178 0.64148
 H4220 H 0.55198 0.24113 0.68323
 H4221 H 0.67259 0.21664 0.69154
 H4222 H 0.69853 0.22201 0.70261
 H4223 H 0.67643 0.25283 0.73579
 H4224 H 0.65063 0.24729 0.72459
 C4225 C 0.08523 0.73190 0.16811
 C4226 C 0.08423 0.73001 0.18393
 C4227 C 0.06952 0.73059 0.19126
 C4228 C 0.05585 0.73348 0.18279
 C4229 C 0.05685 0.73595 0.16695
 C4230 C 0.07162 0.73485 0.15966
 C4231 C 0.09851 0.72889 0.19258
 C4232 C 0.11086 0.72875 0.19930
 C4233 C 0.12563 0.72947 0.20650
 C4234 C 0.13848 0.73075 0.21213
 C4235 C 0.15398 0.73296 0.21826
 C4236 C 0.15614 0.74288 0.23079
 C4237 C 0.17136 0.74600 0.23604
 C4238 C 0.18460 0.73927 0.22875
 C4239 C 0.18226 0.72915 0.21627
 C4240 C 0.16703 0.72604 0.21106
 H4241 H 0.09658 0.73152 0.16236
 H4242 H 0.06868 0.72927 0.20352
 H4243 H 0.04461 0.73438 0.18868
 H4244 H 0.07266 0.73647 0.14744
 H4245 H 0.14609 0.74839 0.23635
 H4246 H 0.17274 0.75381 0.24569
 H4247 H 0.19217 0.72368 0.21046
 H4248 H 0.16545 0.71843 0.20128
   
