data_POSCAR
  _audit_creation_date              2014-09-24
  _audit_creation_method            'ToBaCCo'
  _symmetry_space_group_name_H-M    'P1'
  _symmetry_Int_Tables_number       1
  _symmetry_cell_setting            triclinic
  loop_
  _symmetry_equiv_pos_as_xyz
 x,y,z
_cell_length_a 50.2734
_cell_length_b 50.3808
_cell_length_c 50.2895
_cell_angle_alpha 89.965700
_cell_angle_beta 90.008300
_cell_angle_gamma 90.026500
loop_
  _atom_site_label
  _atom_site_type_symbol
  _atom_site_fract_x
  _atom_site_fract_y
  _atom_site_fract_z
C1 C 0.23376 1.08253 -0.01362
 C2 C 0.23485 1.08245 0.01360
 C3 C 0.24621 1.05848 0.02106
 N4 N 0.25143 1.04364 -0.00077
 C5 C 0.24373 1.05829 -0.02197
 C6 C 0.25230 1.05075 0.04753
 C7 C 0.25879 1.02403 0.05376
 C8 C 0.27246 1.01585 0.07635
 C9 C 0.27284 0.98859 0.07597
 C10 C 0.25978 0.98087 0.05301
 N11 N 0.25148 1.00253 0.03942
 C12 C 0.25411 0.95439 0.04598
 C13 C 0.24793 0.94707 0.01966
 C14 C 0.23728 0.92287 0.01215
 C15 C 0.23669 0.92284 -0.01509
 C16 C 0.24730 0.94693 -0.02331
 N17 N 0.25392 0.96185 -0.00198
 C18 C 0.25200 0.95436 -0.05010
 C19 C 0.25553 0.98142 -0.05734
 C20 C 0.26595 0.99033 -0.08131
 C21 C 0.26450 1.01756 -0.08102
 C22 C 0.25404 1.02471 -0.05655
 N23 N 0.24858 1.00260 -0.04226
 C24 C 0.24776 1.05092 -0.04876
 H25 H 0.22644 1.09868 -0.02576
 H26 H 0.22795 1.09831 0.02634
 H27 H 0.23808 1.00204 -0.02442
 H28 H 0.28115 1.02823 0.09163
 H29 H 0.28167 0.97589 0.09093
 H30 H 0.23068 0.90690 0.02495
 H31 H 0.22931 0.90687 -0.02744
 H32 H 0.27051 1.03047 -0.09711
 H33 H 0.23888 1.00247 0.02297
 H34 H 0.27377 0.97853 -0.09748
 C35 C 0.76816 0.48439 0.58135
 C36 C 0.76775 0.51163 0.58178
 C37 C 0.75820 0.51976 0.55722
 N38 N 0.75276 0.49846 0.54185
 C39 C 0.75884 0.47682 0.55656
 C40 C 0.75274 0.54632 0.55001
 C41 C 0.74717 0.55404 0.52354
 C42 C 0.73587 0.57804 0.51614
 C43 C 0.73539 0.57852 0.48879
 C44 C 0.74644 0.55480 0.48021
 N45 N 0.75356 0.54000 0.50152
 C46 C 0.75114 0.54803 0.45332
 C47 C 0.75678 0.52182 0.44513
 C48 C 0.76597 0.51466 0.42015
 C49 C 0.76687 0.48744 0.41972
 C50 C 0.75813 0.47890 0.44441
 N51 N 0.75197 0.49994 0.45991
 C52 C 0.75424 0.45216 0.45184
 C53 C 0.74887 0.44449 0.47834
 C54 C 0.73852 0.42010 0.48589
 C55 C 0.73855 0.41960 0.51323
 C56 C 0.74896 0.44369 0.52161
 N57 N 0.75507 0.45880 0.50022
 C58 C 0.75443 0.45039 0.54835
 H59 H 0.77450 0.47165 0.59748
 H60 H 0.77369 0.52401 0.59833
 H61 H 0.76594 0.47638 0.50048
 H62 H 0.72879 0.59366 0.52910
 H63 H 0.72789 0.59458 0.47662
 H64 H 0.77138 0.52768 0.40390
 H65 H 0.77310 0.47535 0.40307
 H66 H 0.73195 0.40323 0.52551
 H67 H 0.76481 0.52268 0.50107
 H68 H 0.73191 0.40419 0.47304
 C69 C 0.76700 1.01221 1.07930
 C70 C 0.76645 0.98507 1.07912
 C71 C 0.75302 0.97764 1.05622
 N72 N 0.74560 0.99934 1.04220
 C73 C 0.75382 1.02053 1.05655
 C74 C 0.74681 0.95117 1.04909
 C75 C 0.74191 0.94428 1.02219
 C76 C 0.72955 0.92119 1.01355
 C77 C 0.73059 0.92137 0.98624
 C78 C 0.74300 0.94482 0.97891
 N79 N 0.74969 0.95877 1.00088
 C80 C 0.74923 0.95204 0.95251
 C81 C 0.75359 0.97864 0.94485
 C82 C 0.76161 0.98686 0.91981
 C83 C 0.76062 1.01407 0.91989
 C84 C 0.75252 1.02157 0.94516
 N85 N 0.74808 0.99986 0.96031
 C86 C 0.74687 1.04780 0.95319
 C87 C 0.74187 1.05483 0.97995
 C88 C 0.73075 1.07863 0.98821
 C89 C 0.73092 1.07842 1.01551
 C90 C 0.74283 1.05482 1.02330
 N91 N 0.74920 1.04044 1.00148
 C92 C 0.74849 1.04734 1.04990
 H93 H 0.77622 1.02445 1.09439
 H94 H 0.77517 0.97223 1.09401
 H95 H 0.76052 1.02314 1.00131
 H96 H 0.72073 0.90572 1.02561
 H97 H 0.72293 0.90606 0.97322
 H98 H 0.76706 0.97460 0.90302
 H99 H 0.76497 1.02675 0.90309
 H100 H 0.72323 1.09401 1.02813
 H101 H 0.76150 0.97577 1.00136
 H102 H 0.72333 1.09466 0.97598
 C103 C 0.23508 0.42173 0.48365
 C104 C 0.23469 0.42129 0.51092
 C105 C 0.24321 0.44608 0.51930
 N106 N 0.24873 0.46164 0.49813
 C107 C 0.24378 0.44680 0.47632
 C108 C 0.24777 0.45341 0.54601
 C109 C 0.25238 0.47999 0.55375
 C110 C 0.26286 0.48775 0.57803
 C111 C 0.26236 0.51505 0.57844
 C112 C 0.25158 0.52320 0.55440
 N113 N 0.24561 0.50171 0.53943
 C114 C 0.24574 0.54982 0.54760
 C115 C 0.24089 0.55797 0.52117
 C116 C 0.23113 0.58259 0.51369
 C117 C 0.23108 0.58302 0.48640
 C118 C 0.24083 0.55866 0.47815
 N119 N 0.24685 0.54339 0.49942
 C120 C 0.24565 0.55136 0.45147
 C121 C 0.25191 0.52508 0.44389
 C122 C 0.26304 0.51788 0.41971
 C123 C 0.26396 0.49061 0.41927
 C124 C 0.25333 0.48190 0.44317
 N125 N 0.24609 0.50304 0.45809
 C126 C 0.24897 0.45503 0.44999
 H127 H 0.22974 0.40542 0.47071
 H128 H 0.22898 0.40455 0.52316
 H129 H 0.23494 0.50243 0.47550
 H130 H 0.26996 0.47508 0.59390
 H131 H 0.26898 0.52746 0.59471
 H132 H 0.22475 0.59859 0.52653
 H133 H 0.22467 0.59943 0.47407
 H134 H 0.27140 0.47857 0.40308
 H135 H 0.23464 0.50179 0.52189
 H136 H 0.26962 0.53093 0.40391
 C137 C 1.07841 0.23812 -0.01739
 C138 C 1.07965 0.23756 0.00977
 C139 C 1.05531 0.24657 0.01905
 N140 N 1.03900 0.25191 -0.00168
 C141 C 1.05299 0.24660 -0.02408
 C142 C 1.04890 0.25088 0.04622
 C143 C 1.02224 0.25472 0.05477
 C144 C 1.01477 0.26532 0.07915
 C145 C 0.98755 0.26380 0.08056
 C146 C 0.97896 0.25310 0.05668
 N147 N 1.00019 0.24762 0.04106
 C148 C 0.95233 0.24663 0.05063
 C149 C 0.94347 0.24243 0.02435
 C150 C 0.91873 0.23251 0.01743
 C151 C 0.91733 0.23347 -0.00974
 C152 C 0.94099 0.24466 -0.01857
 N153 N 0.95703 0.24993 0.00236
 C154 C 0.94710 0.25076 -0.04543
 C155 C 0.97345 0.25699 -0.05364
 C156 C 0.98003 0.26927 -0.07744
 C157 C 1.00725 0.26959 -0.07901
 C158 C 1.01688 0.25839 -0.05565
 N159 N 0.99603 0.25073 -0.04033
 C160 C 1.04400 0.25250 -0.05020
 H161 H 1.09478 0.23329 -0.03043
 H162 H 1.09675 0.23145 0.02132
 H163 H 0.99715 0.23891 -0.02339
 H164 H 1.02758 0.27319 0.09454
 H165 H 0.97561 0.26987 0.09736
 H166 H 0.90319 0.22538 0.03048
 H167 H 0.90069 0.22672 -0.02159
 H168 H 1.01828 0.27681 -0.09595
 H169 H 0.99977 0.23684 0.02340
 H170 H 0.96664 0.27683 -0.09248
 C171 C 0.48720 0.72905 0.58160
 C172 C 0.51449 0.72864 0.58175
 C173 C 0.52264 0.73825 0.55724
 N174 N 0.50130 0.74464 0.54220
 C175 C 0.47961 0.73900 0.55704
 C176 C 0.54937 0.74232 0.54961
 C177 C 0.55704 0.74778 0.52307
 C178 C 0.58208 0.75645 0.51544
 C179 C 0.58234 0.75693 0.48813
 C180 C 0.55727 0.74900 0.47974
 N181 N 0.54203 0.74332 0.50119
 C182 C 0.54970 0.74519 0.45291
 C183 C 0.52294 0.74270 0.44468
 C184 C 0.51476 0.73695 0.41898
 C185 C 0.48752 0.73825 0.41897
 C186 C 0.47994 0.74507 0.44457
 N187 N 0.50162 0.74786 0.46021
 C188 C 0.45355 0.75031 0.45270
 C189 C 0.44631 0.75383 0.47964
 C190 C 0.42234 0.76444 0.48819
 C191 C 0.42223 0.76275 0.51547
 C192 C 0.44614 0.75119 0.52287
 N193 N 0.46072 0.74583 0.50092
 C194 C 0.45315 0.74430 0.54922
 H195 H 0.47444 0.72281 0.59777
 H196 H 0.52691 0.72200 0.59803
 H197 H 0.47799 0.73449 0.50037
 H198 H 0.59870 0.76146 0.52817
 H199 H 0.59927 0.76221 0.47598
 H200 H 0.52704 0.73262 0.40187
 H201 H 0.47480 0.73485 0.40195
 H202 H 0.40625 0.76916 0.52839
 H203 H 0.52369 0.73382 0.50082
 H204 H 0.40647 0.77241 0.47603
 C205 C -0.01329 0.73993 -0.07948
 C206 C 0.01393 0.73912 -0.07950
 C207 C 0.02223 0.74929 -0.05526
 N208 N 0.00085 0.75550 -0.04016
 C209 C -0.02098 0.74958 -0.05479
 C210 C 0.04909 0.75362 -0.04766
 C211 C 0.05608 0.76010 -0.02109
 C212 C 0.07983 0.77198 -0.01349
 C213 C 0.07997 0.77279 0.01377
 C214 C 0.05603 0.76200 0.02217
 N215 N 0.04152 0.75439 0.00079
 C216 C 0.04923 0.75695 0.04894
 C217 C 0.02298 0.75141 0.05702
 C218 C 0.01572 0.74166 0.08172
 C219 C -0.01150 0.74050 0.08188
 C220 C -0.02006 0.75045 0.05759
 N221 N 0.00113 0.75692 0.04235
 C222 C -0.04694 0.75424 0.04995
 C223 C -0.05403 0.76034 0.02327
 C224 C -0.07797 0.77164 0.01560
 C225 C -0.07824 0.77205 -0.01164
 C226 C -0.05407 0.76169 -0.02017
 N227 N -0.03942 0.75466 0.00137
 C228 C -0.04741 0.75563 -0.04699
 H229 H -0.02570 0.73426 -0.09607
 H230 H 0.02611 0.73200 -0.09572
 H231 H -0.02208 0.74339 0.00114
 H232 H 0.09566 0.77904 -0.02625
 H233 H 0.09613 0.78018 0.02588
 H234 H 0.02858 0.73583 0.09794
 H235 H -0.02350 0.73310 0.09812
 H236 H -0.09494 0.77854 -0.02346
 H237 H 0.02427 0.74298 0.00124
 H238 H -0.09396 0.77840 0.02832
 C239 C 0.58049 0.25959 0.51228
 C240 C 0.57998 0.26037 0.48504
 C241 C 0.55405 0.25481 0.47747
 N242 N 0.53887 0.25014 0.49917
 C243 C 0.55498 0.25307 0.52048
 C244 C 0.54526 0.25197 0.45093
 C245 C 0.51810 0.24938 0.44391
 C246 C 0.50889 0.24217 0.41892
 C247 C 0.48161 0.24364 0.41977
 C248 C 0.47483 0.25201 0.44514
 N249 N 0.49718 0.25554 0.45970
 C250 C 0.44862 0.25774 0.45364
 C251 C 0.44157 0.26062 0.48067
 C252 C 0.41708 0.26941 0.48974
 C253 C 0.41767 0.26739 0.51693
 C254 C 0.44253 0.25751 0.52357
 N255 N 0.45709 0.25334 0.50137
 C256 C 0.45074 0.25073 0.54957
 C257 C 0.47749 0.24499 0.55611
 C258 C 0.48576 0.23330 0.57968
 C259 C 0.51310 0.23261 0.57900
 C260 C 0.52079 0.24380 0.55500
 N261 N 0.49898 0.25137 0.54120
 C262 C 0.54746 0.24796 0.54708
 H263 H 0.59782 0.26302 0.52456
 H264 H 0.59692 0.26430 0.47239
 H265 H 0.49891 0.26287 0.52403
 H266 H 0.52048 0.23677 0.40164
 H267 H 0.46833 0.23934 0.40339
 H268 H 0.40045 0.27639 0.47799
 H269 H 0.40159 0.27252 0.53028
 H270 H 0.52586 0.22475 0.59445
 H271 H 0.49818 0.26460 0.47822
 H272 H 0.47341 0.22611 0.59577
 C273 C 1.08384 -0.01215 0.26297
 C274 C 1.08353 0.01500 0.26315
 C275 C 1.05822 0.02274 0.25527
 N276 N 1.04338 0.00099 0.24957
 C277 C 1.05908 -0.02037 0.25406
 C278 C 1.05001 0.04929 0.25037
 C279 C 1.02294 0.05601 0.24564
 C280 C 1.01372 0.08049 0.23672
 C281 C 0.98644 0.07972 0.23778
 C282 C 0.97955 0.05509 0.24788
 N283 N 1.00185 0.04079 0.25261
 C284 C 0.95332 0.04715 0.25426
 C285 C 0.94652 0.02059 0.26000
 C286 C 0.92228 0.01233 0.27022
 C287 C 0.92281 -0.01489 0.27037
 C288 C 0.94733 -0.02229 0.26020
 N289 N 0.96182 -0.00059 0.25395
 C290 C 0.95500 -0.04853 0.25423
 C291 C 0.98149 -0.05531 0.24773
 C292 C 0.98899 -0.07843 0.23488
 C293 C 1.01627 -0.07797 0.23318
 C294 C 1.02477 -0.05473 0.24539
 N295 N 1.00337 -0.04091 0.25403
 C296 C 1.05178 -0.04713 0.24882
 H297 H 1.10064 -0.02438 0.26850
 H298 H 1.10039 0.02732 0.26810
 H299 H 1.00380 -0.02394 0.26583
 H300 H 1.02514 0.09768 0.23082
 H301 H 0.97325 0.09582 0.23241
 H302 H 0.90582 0.02462 0.27657
 H303 H 0.90681 -0.02776 0.27681
 H304 H 1.02841 -0.09301 0.22379
 H305 H 1.00275 0.02305 0.26314
 H306 H 0.97615 -0.09390 0.22727
 C307 C 0.48646 0.58193 0.74803
 C308 C 0.51367 0.58183 0.74884
 C309 C 0.52152 0.55544 0.74947
 N310 N 0.49988 0.53952 0.74975
 C311 C 0.47840 0.55564 0.74896
 C312 C 0.54831 0.54672 0.74886
 C313 C 0.55631 0.51975 0.74738
 C314 C 0.58203 0.51172 0.74152
 C315 C 0.58186 0.48453 0.74075
 C316 C 0.55605 0.47645 0.74622
 N317 N 0.54062 0.49809 0.75057
 C318 C 0.54778 0.44950 0.74645
 C319 C 0.52092 0.44102 0.74738
 C320 C 0.51276 0.41473 0.74632
 C321 C 0.48552 0.41491 0.74628
 C322 C 0.47780 0.44126 0.74796
 N323 N 0.49947 0.45713 0.74856
 C324 C 0.45112 0.45003 0.74963
 C325 C 0.44347 0.47698 0.75221
 C326 C 0.41808 0.48511 0.75931
 C327 C 0.41819 0.51230 0.75932
 C328 C 0.44365 0.52024 0.75228
 N329 N 0.45897 0.49857 0.74782
 C330 C 0.45158 0.54713 0.74993
 H331 H 0.47416 0.59951 0.74707
 H332 H 0.52614 0.59933 0.74866
 H333 H 0.47796 0.49853 0.73975
 H334 H 0.59913 0.52414 0.73747
 H335 H 0.59882 0.47219 0.73602
 H336 H 0.52503 0.39712 0.74544
 H337 H 0.47297 0.39750 0.74530
 H338 H 0.40142 0.52481 0.76432
 H339 H 0.52107 0.49805 0.75707
 H340 H 0.40119 0.47273 0.76428
 C341 C 1.01205 1.08028 0.73975
 C342 C 0.98481 1.07961 0.74051
 C343 C 0.97781 1.05448 0.74916
 N344 N 0.99984 1.03971 0.75344
 C345 C 1.02091 1.05528 0.74740
 C346 C 0.95161 1.04609 0.75481
 C347 C 0.94524 1.01949 0.76103
 C348 C 0.92154 1.01122 0.77248
 C349 C 0.92206 0.98393 0.77282
 C350 C 0.94604 0.97633 0.76153
 N351 N 0.96014 0.99811 0.75459
 C352 C 0.95323 0.94996 0.75537
 C353 C 0.97968 0.94267 0.74955
 C354 C 0.98726 0.91899 0.73787
 C355 C 1.01449 0.91939 0.73656
 C356 C 1.02269 0.94315 0.74790
 N357 N 1.00131 0.95745 0.75566
 C358 C 1.04949 0.95120 0.75148
 C359 C 1.05615 0.97803 0.75726
 C360 C 1.08017 0.98636 0.76793
 C361 C 1.07992 1.01357 0.76781
 C362 C 1.05532 1.02142 0.75793
 N363 N 1.04097 0.99950 0.75158
 C364 C 1.04780 1.04798 0.75190
 H365 H 1.02374 1.09761 0.73484
 H366 H 0.97175 1.09601 0.73579
 H367 H 1.02335 0.99918 0.74073
 H368 H 0.90536 1.02356 0.77942
 H369 H 0.90633 0.97114 0.78001
 H370 H 0.97450 0.90326 0.73065
 H371 H 1.02678 0.90403 0.72790
 H372 H 1.09650 1.02582 0.77377
 H373 H 0.97720 0.99824 0.74289
 H374 H 1.09656 0.97413 0.77460
 C375 C 0.42090 0.48749 0.26599
 C376 C 0.42125 0.51469 0.26567
 C377 C 0.44624 0.52214 0.25673
 N378 N 0.46113 0.50043 0.25155
 C379 C 0.44567 0.47921 0.25720
 C380 C 0.45420 0.54856 0.25166
 C381 C 0.48093 0.55594 0.24676
 C382 C 0.48891 0.58068 0.23769
 C383 C 0.51622 0.58049 0.23708
 C384 C 0.52430 0.55545 0.24532
 N385 N 0.50263 0.54074 0.25150
 C386 C 0.55114 0.54737 0.24823
 C387 C 0.55915 0.52059 0.25105
 C388 C 0.58523 0.51230 0.25436
 C389 C 0.58486 0.48511 0.25417
 C390 C 0.55855 0.47756 0.25080
 N391 N 0.54293 0.49930 0.24861
 C392 C 0.54977 0.45103 0.24778
 C393 C 0.52267 0.44368 0.24528
 C394 C 0.51377 0.41883 0.23733
 C395 C 0.48648 0.41936 0.23842
 C396 C 0.47933 0.44435 0.24742
 N397 N 0.50151 0.45900 0.25171
 C398 C 0.45289 0.45250 0.25263
 H399 H 0.40422 0.47522 0.27184
 H400 H 0.40491 0.52752 0.27123
 H401 H 0.50225 0.47728 0.26119
 H402 H 0.47642 0.59731 0.23228
 H403 H 0.52856 0.59709 0.23128
 H404 H 0.60287 0.52449 0.25605
 H405 H 0.60216 0.47245 0.25571
 H406 H 0.47344 0.40303 0.23335
 H407 H 0.50276 0.52250 0.26111
 H408 H 0.52557 0.40189 0.23144
 O409 O 0.25065 0.18271 0.21366
 O410 O 0.27858 0.17551 0.25109
 O411 O 0.18030 0.21532 0.24801
 O412 O 0.16988 0.24944 0.27440
 O413 O 0.21445 0.25162 0.17911
 O414 O 0.25142 0.27985 0.17164
 O415 O 0.24948 0.28934 0.31744
 O416 O 0.21796 0.25536 0.32478
 O417 O 0.31709 0.25490 0.28710
 O418 O 0.32690 0.22406 0.25056
 O419 O 0.28526 0.32100 0.24950
 O420 O 0.24801 0.32895 0.21933
 O421 O 0.24927 0.32099 0.28524
 O422 O 0.21874 0.32803 0.24642
 O423 O 0.31754 0.28951 0.25105
 O424 O 0.32614 0.25078 0.22079
 O425 O 0.28471 0.25429 0.31860
 O426 O 0.24758 0.22311 0.32593
 O427 O 0.25165 0.21389 0.18097
 O428 O 0.28138 0.25110 0.17384
 O429 O 0.18154 0.25176 0.21010
 O430 O 0.17444 0.28319 0.24685
 O431 O 0.21225 0.18341 0.25045
 O432 O 0.24915 0.17660 0.28042
 Zr433 Zr 0.24841 0.20464 0.24913
 O434 O 0.27294 0.22782 0.27384
 Zr435 Zr 0.20166 0.25111 0.24687
 O436 O 0.22372 0.27603 0.27237
 Zr437 Zr 0.24971 0.25034 0.20149
 O438 O 0.27353 0.27596 0.22443
 Zr439 Zr 0.24909 0.25335 0.29658
 O440 O 0.22420 0.22816 0.27383
 Zr441 Zr 0.29665 0.25329 0.25074
 O442 O 0.27479 0.22739 0.22582
 Zr443 Zr 0.24948 0.29945 0.24928
 O444 O 0.22546 0.27636 0.22353
 O445 O 0.22440 0.22608 0.22326
 O446 O 0.27412 0.27822 0.27487
 C447 C 0.25191 0.18966 0.18909
 C448 C 0.18783 0.19099 0.24958
 C449 C 0.18981 0.25220 0.18590
 C450 C 0.24962 0.31364 0.30973
 C451 C 0.30921 0.25522 0.31138
 C452 C 0.30975 0.31379 0.25039
 H453 H 0.28390 0.21605 0.28510
 H454 H 0.28462 0.28689 0.21245
 H455 H 0.21336 0.21451 0.21181
 H456 H 0.21155 0.28691 0.28329
 H457 H 0.20413 0.24265 0.31889
 H458 H 0.17511 0.26013 0.29003
 H459 H 0.32343 0.26575 0.20834
 H460 H 0.29485 0.23832 0.18035
 H461 H 0.26253 0.21074 0.32287
 H462 H 0.23619 0.18281 0.29387
 H463 H 0.26172 0.32457 0.20593
 H464 H 0.23971 0.29446 0.17763
 H465 H 0.29348 0.18217 0.24008
 H466 H 0.32253 0.21081 0.26440
 H467 H 0.18004 0.29547 0.23253
 H468 H 0.20641 0.32521 0.26149
 O469 O 0.74955 0.81939 0.21525
 O470 O 0.72154 0.82667 0.25268
 O471 O 0.82009 0.78763 0.25258
 O472 O 0.83041 0.75297 0.27805
 O473 O 0.78754 0.75051 0.18212
 O474 O 0.75086 0.72189 0.17426
 O475 O 0.75062 0.71320 0.31999
 O476 O 0.78158 0.74776 0.32738
 O477 O 0.68293 0.74653 0.28811
 O478 O 0.67397 0.77867 0.25154
 O479 O 0.71522 0.68141 0.25211
 O480 O 0.75316 0.67371 0.22168
 O481 O 0.75044 0.68170 0.28769
 O482 O 0.78161 0.67418 0.24984
 O483 O 0.68304 0.71303 0.25025
 O484 O 0.67452 0.75205 0.22206
 O485 O 0.71474 0.74894 0.32019
 O486 O 0.75144 0.77929 0.32837
 O487 O 0.75023 0.78801 0.18279
 O488 O 0.72098 0.75082 0.17515
 O489 O 0.81990 0.75114 0.21368
 O490 O 0.82633 0.71960 0.25050
 O491 O 0.78783 0.81924 0.25175
 O492 O 0.75115 0.82610 0.28191
 Zr493 Zr 0.75194 0.79776 0.25094
 O494 O 0.72721 0.77462 0.27548
 Zr495 Zr 0.79901 0.75159 0.25007
 O496 O 0.77650 0.72657 0.27514
 Zr497 Zr 0.75185 0.75180 0.20370
 O498 O 0.72752 0.72638 0.22628
 Zr499 Zr 0.75071 0.74923 0.29884
 O500 O 0.77578 0.77454 0.27636
 Zr501 Zr 0.70391 0.74911 0.25206
 O502 O 0.72615 0.77481 0.22727
 Zr503 Zr 0.75106 0.70304 0.25174
 O504 O 0.77571 0.72607 0.22648
 O505 O 0.77663 0.77634 0.22576
 O506 O 0.72597 0.72430 0.27682
 C507 C 0.74908 0.81226 0.19070
 C508 C 0.81234 0.81197 0.25268
 C509 C 0.81205 0.75033 0.18934
 C510 C 0.75025 0.68891 0.31219
 C511 C 0.69043 0.74722 0.31252
 C512 C 0.69079 0.68877 0.25089
 H513 H 0.71604 0.78642 0.28648
 H514 H 0.71670 0.71546 0.21406
 H515 H 0.78780 0.78793 0.21444
 H516 H 0.78850 0.71573 0.28630
 H517 H 0.79527 0.76069 0.32162
 H518 H 0.82477 0.74254 0.29372
 H519 H 0.67853 0.73848 0.20842
 H520 H 0.70736 0.76370 0.18110
 H521 H 0.73776 0.79264 0.32390
 H522 H 0.76415 0.82008 0.29542
 H523 H 0.73882 0.67735 0.20872
 H524 H 0.76249 0.70740 0.18070
 H525 H 0.70665 0.81974 0.24184
 H526 H 0.67704 0.79071 0.26676
 H527 H 0.82085 0.70719 0.23626
 H528 H 0.79404 0.67750 0.26472
 O529 O 0.74702 0.17928 0.78780
 O530 O 0.71840 0.17138 0.75036
 O531 O 0.81732 0.21000 0.75268
 O532 O 0.82864 0.24377 0.72621
 O533 O 0.78214 0.24876 0.82044
 O534 O 0.74541 0.27822 0.82582
 O535 O 0.75129 0.28257 0.68019
 O536 O 0.78195 0.24756 0.67490
 O537 O 0.68168 0.24808 0.71016
 O538 O 0.67110 0.21946 0.74796
 O539 O 0.71288 0.31643 0.74649
 O540 O 0.74986 0.32492 0.77720
 O541 O 0.74957 0.31510 0.71140
 O542 O 0.77919 0.32356 0.75026
 O543 O 0.68075 0.28480 0.74408
 O544 O 0.67104 0.24775 0.77615
 O545 O 0.71483 0.24723 0.67947
 O546 O 0.75167 0.21631 0.67357
 O547 O 0.74373 0.21178 0.81906
 O548 O 0.71536 0.24967 0.82467
 O549 O 0.81562 0.24772 0.79009
 O550 O 0.82377 0.27798 0.75271
 O551 O 0.78491 0.17853 0.75138
 O552 O 0.74862 0.17062 0.72159
 Zr553 Zr 0.74913 0.20002 0.75156
 O554 O 0.72553 0.22242 0.72534
 Zr555 Zr 0.79625 0.24614 0.75297
 O556 O 0.77485 0.27045 0.72632
 Zr557 Zr 0.74726 0.24740 0.79738
 O558 O 0.72392 0.27216 0.77302
 Zr559 Zr 0.74998 0.24716 0.70223
 O560 O 0.77401 0.22246 0.72643
 Zr561 Zr 0.70138 0.24865 0.74695
 O562 O 0.72248 0.22371 0.77344
 Zr563 Zr 0.74861 0.29473 0.74797
 O564 O 0.77213 0.27239 0.77486
 O565 O 0.77284 0.22217 0.77706
 O566 O 0.72449 0.27279 0.72244
 C567 C 0.74445 0.18729 0.81192
 C568 C 0.80943 0.18571 0.75178
 C569 C 0.80691 0.24893 0.81410
 C570 C 0.75078 0.30710 0.68717
 C571 C 0.69014 0.24755 0.68609
 C572 C 0.68848 0.30908 0.74455
 H573 H 0.71481 0.21023 0.71430
 H574 H 0.71258 0.28351 0.78433
 H575 H 0.78363 0.21089 0.78904
 H576 H 0.78737 0.28093 0.71538
 H577 H 0.79535 0.23482 0.68164
 H578 H 0.82373 0.25393 0.71011
 H579 H 0.67330 0.26344 0.78775
 H580 H 0.70129 0.23773 0.81787
 H581 H 0.73726 0.20351 0.67738
 H582 H 0.76141 0.17644 0.70780
 H583 H 0.73565 0.32119 0.79028
 H584 H 0.75796 0.29212 0.81979
 H585 H 0.70410 0.17795 0.76218
 H586 H 0.67613 0.20524 0.73539
 H587 H 0.81770 0.29091 0.76623
 H588 H 0.79220 0.31977 0.73601
 O589 O 0.25360 0.81936 0.78739
 O590 O 0.28259 0.82572 0.75008
 O591 O 0.18311 0.78862 0.75092
 O592 O 0.17182 0.75432 0.72546
 O593 O 0.21573 0.75087 0.82092
 O594 O 0.25214 0.72156 0.82825
 O595 O 0.24991 0.71283 0.68277
 O596 O 0.21966 0.74823 0.67571
 O597 O 0.31908 0.74699 0.71335
 O598 O 0.32937 0.77660 0.75022
 O599 O 0.28565 0.68057 0.74953
 O600 O 0.24840 0.67366 0.78124
 O601 O 0.24882 0.68138 0.71513
 O602 O 0.21940 0.67440 0.75385
 O603 O 0.31861 0.71144 0.75009
 O604 O 0.32794 0.75010 0.77978
 O605 O 0.28654 0.74667 0.68200
 O606 O 0.25084 0.77890 0.67416
 O607 O 0.25386 0.78766 0.81959
 O608 O 0.28238 0.74998 0.82702
 O609 O 0.18307 0.75216 0.78970
 O610 O 0.17534 0.72094 0.75311
 O611 O 0.21593 0.81968 0.75012
 O612 O 0.25296 0.82601 0.72074
 Zr613 Zr 0.25141 0.79760 0.75165
 O614 O 0.27527 0.77396 0.72673
 Zr615 Zr 0.20347 0.75225 0.75313
 O616 O 0.22505 0.72677 0.72785
 Zr617 Zr 0.25121 0.75152 0.79883
 O618 O 0.27478 0.72570 0.77589
 Zr619 Zr 0.25099 0.74888 0.70378
 O620 O 0.22684 0.77476 0.72655
 Zr621 Zr 0.29847 0.74804 0.74977
 O622 O 0.27707 0.77410 0.77491
 Zr623 Zr 0.25031 0.70281 0.75094
 O624 O 0.22649 0.72628 0.77647
 O625 O 0.22661 0.77657 0.77711
 O626 O 0.27554 0.72353 0.72547
 C627 C 0.25458 0.81199 0.81188
 C628 C 0.19130 0.81279 0.74981
 C629 C 0.19114 0.75114 0.81395
 C630 C 0.24903 0.68856 0.69062
 C631 C 0.31108 0.74629 0.68908
 C632 C 0.31029 0.68733 0.74962
 H633 H 0.28649 0.78556 0.71555
 H634 H 0.28562 0.71453 0.78787
 H635 H 0.21570 0.78836 0.78845
 H636 H 0.21260 0.71618 0.71695
 H637 H 0.20652 0.76166 0.68154
 H638 H 0.17704 0.74373 0.70975
 H639 H 0.32458 0.73554 0.79255
 H640 H 0.29639 0.76222 0.82060
 H641 H 0.26579 0.79117 0.67765
 H642 H 0.24061 0.81975 0.70675
 H643 H 0.26340 0.67675 0.79358
 H644 H 0.24015 0.70728 0.82199
 H645 H 0.29671 0.81913 0.76212
 H646 H 0.32480 0.79056 0.73716
 H647 H 0.18064 0.70844 0.76736
 H648 H 0.20621 0.67839 0.73981
 O649 O 0.24520 0.31963 0.71026
 O650 O 0.21550 0.32812 0.74647
 O651 O 0.31389 0.28910 0.75170
 O652 O 0.32354 0.25513 0.77808
 O653 O 0.28379 0.24903 0.68107
 O654 O 0.24694 0.22060 0.67303
 O655 O 0.24175 0.21683 0.81859
 O656 O 0.27281 0.25168 0.82600
 O657 O 0.17536 0.25214 0.78350
 O658 O 0.16777 0.28008 0.74475
 O659 O 0.20901 0.18313 0.75188
 O660 O 0.24745 0.17444 0.72174
 O661 O 0.24517 0.18426 0.78751
 O662 O 0.27521 0.17538 0.75026
 O663 O 0.17691 0.21469 0.74815
 O664 O 0.16968 0.25215 0.71684
 O665 O 0.20626 0.25156 0.81651
 O666 O 0.24244 0.28323 0.82492
 O667 O 0.24713 0.28695 0.67915
 O668 O 0.21746 0.24990 0.67189
 O669 O 0.31512 0.25153 0.71357
 O670 O 0.32028 0.22108 0.75168
 O671 O 0.28181 0.32074 0.74818
 O672 O 0.24427 0.32867 0.77673
 Zr673 Zr 0.24599 0.29923 0.74683
 O674 O 0.22044 0.27702 0.77141
 Zr675 Zr 0.29297 0.25299 0.74924
 O676 O 0.26960 0.22887 0.77438
 Zr677 Zr 0.24739 0.25155 0.70138
 O678 O 0.22221 0.22706 0.72409
 Zr679 Zr 0.24294 0.25222 0.79640
 O680 O 0.26880 0.27678 0.77390
 Zr681 Zr 0.19779 0.25083 0.74818
 O682 O 0.22095 0.27550 0.72317
 Zr683 Zr 0.24495 0.20456 0.75098
 O684 O 0.27049 0.22664 0.72579
 O685 O 0.27149 0.27685 0.72334
 O686 O 0.21890 0.22664 0.77443
 C687 C 0.24593 0.31150 0.68603
 C688 C 0.30619 0.31342 0.75049
 C689 C 0.30807 0.24943 0.68905
 C690 C 0.24330 0.19235 0.81164
 C691 C 0.18212 0.25199 0.80814
 C692 C 0.18461 0.19046 0.75003
 H693 H 0.20898 0.28928 0.78157
 H694 H 0.21169 0.21569 0.71203
 H695 H 0.28316 0.28799 0.71206
 H696 H 0.28131 0.21845 0.78623
 H697 H 0.28658 0.26459 0.82040
 H698 H 0.31712 0.24572 0.79411
 H699 H 0.17373 0.23744 0.70447
 H700 H 0.20368 0.26293 0.67710
 H701 H 0.22823 0.29589 0.82005
 H702 H 0.25616 0.32266 0.79122
 H703 H 0.23268 0.17704 0.70901
 H704 H 0.25803 0.20616 0.68045
 H705 H 0.20170 0.32157 0.73406
 H706 H 0.17179 0.29430 0.75769
 H707 H 0.31572 0.20852 0.73725
 H708 H 0.28835 0.18001 0.76414
 O709 O 0.75156 0.67850 0.71718
 O710 O 0.77989 0.67117 0.75460
 O711 O 0.68186 0.71156 0.75155
 O712 O 0.67149 0.74580 0.77783
 O713 O 0.71618 0.74652 0.68261
 O714 O 0.75290 0.77591 0.67547
 O715 O 0.75051 0.78510 0.82112
 O716 O 0.71959 0.75084 0.82841
 O717 O 0.81894 0.74869 0.79093
 O718 O 0.82891 0.71989 0.75424
 O719 O 0.78721 0.81663 0.75319
 O720 O 0.75059 0.82508 0.72331
 O721 O 0.75104 0.81676 0.78895
 O722 O 0.72063 0.82374 0.74965
 O723 O 0.81941 0.78509 0.75515
 O724 O 0.82758 0.74614 0.72424
 O725 O 0.78631 0.75125 0.82213
 O726 O 0.74953 0.71886 0.82945
 O727 O 0.75364 0.70976 0.68460
 O728 O 0.78309 0.74714 0.67741
 O729 O 0.68331 0.74800 0.71363
 O730 O 0.67632 0.77947 0.75049
 O731 O 0.71358 0.67943 0.75389
 O732 O 0.75036 0.67247 0.78405
 Zr733 Zr 0.74985 0.70046 0.75271
 O734 O 0.77445 0.72350 0.77748
 Zr735 Zr 0.70338 0.74725 0.75043
 O736 O 0.72549 0.77201 0.77598
 Zr737 Zr 0.75147 0.74617 0.70511
 O738 O 0.77540 0.77162 0.72816
 Zr739 Zr 0.75072 0.74920 0.80018
 O740 O 0.72574 0.72414 0.77738
 Zr741 Zr 0.79842 0.74883 0.75449
 O742 O 0.77643 0.72306 0.72948
 Zr743 Zr 0.75141 0.79525 0.75294
 O744 O 0.72731 0.77235 0.72708
 O745 O 0.72603 0.72209 0.72690
 O746 O 0.77597 0.77394 0.77857
 C747 C 0.75318 0.68551 0.69264
 C748 C 0.68921 0.68717 0.75292
 C749 C 0.69155 0.74744 0.68942
 C750 C 0.75087 0.80940 0.81344
 C751 C 0.81086 0.75040 0.81510
 C752 C 0.81167 0.80941 0.75424
 H753 H 0.78532 0.71163 0.78872
 H754 H 0.78657 0.78251 0.71621
 H755 H 0.71496 0.71053 0.71547
 H756 H 0.71331 0.78293 0.78685
 H757 H 0.70585 0.73806 0.82247
 H758 H 0.67695 0.75603 0.79369
 H759 H 0.82559 0.76174 0.71246
 H760 H 0.79665 0.73447 0.68392
 H761 H 0.76524 0.70730 0.82712
 H762 H 0.73771 0.67901 0.79763
 H763 H 0.76320 0.81979 0.70919
 H764 H 0.74042 0.79001 0.68114
 H765 H 0.79434 0.67718 0.74265
 H766 H 0.82324 0.70526 0.76606
 H767 H 0.68180 0.79160 0.73599
 H768 H 0.70848 0.82135 0.76495
 O769 O 0.25122 0.68348 0.28489
 O770 O 0.22301 0.67596 0.24762
 O771 O 0.32193 0.71427 0.24826
 O772 O 0.33232 0.74807 0.22136
 O773 O 0.28967 0.75202 0.31756
 O774 O 0.25331 0.78160 0.32467
 O775 O 0.25447 0.78830 0.17904
 O776 O 0.28367 0.75284 0.17182
 O777 O 0.18495 0.75318 0.21098
 O778 O 0.17601 0.72418 0.24938
 O779 O 0.21795 0.82117 0.24621
 O780 O 0.25562 0.82913 0.27669
 O781 O 0.25379 0.82039 0.21073
 O782 O 0.28437 0.82807 0.24898
 O783 O 0.18540 0.78990 0.24628
 O784 O 0.17649 0.75251 0.27711
 O785 O 0.21708 0.75542 0.17922
 O786 O 0.25277 0.72199 0.17166
 O787 O 0.25176 0.71522 0.31701
 O788 O 0.22297 0.75284 0.32410
 O789 O 0.32183 0.75209 0.28579
 O790 O 0.32897 0.78202 0.24828
 O791 O 0.28933 0.68296 0.24755
 O792 O 0.25231 0.67595 0.21838
 Zr793 Zr 0.25365 0.70469 0.24896
 O794 O 0.22917 0.72768 0.22405
 Zr795 Zr 0.30110 0.75050 0.24946
 O796 O 0.27892 0.77538 0.22404
 Zr797 Zr 0.25395 0.75120 0.29573
 O798 O 0.22981 0.77649 0.27265
 Zr799 Zr 0.25296 0.75268 0.20056
 O800 O 0.27774 0.72745 0.22338
 Zr801 Zr 0.20602 0.75358 0.24711
 O802 O 0.22805 0.72812 0.27232
 Zr803 Zr 0.25362 0.79940 0.24702
 O804 O 0.27801 0.77650 0.27266
 O805 O 0.27851 0.72618 0.27398
 O806 O 0.22837 0.77802 0.22216
 C807 C 0.25051 0.69090 0.30933
 C808 C 0.31391 0.69003 0.24736
 C809 C 0.31414 0.75273 0.31016
 C810 C 0.25435 0.81272 0.18635
 C811 C 0.19265 0.75472 0.18668
 C812 C 0.19338 0.81413 0.24592
 H813 H 0.21794 0.71580 0.21319
 H814 H 0.21898 0.78773 0.28455
 H815 H 0.28958 0.71464 0.28545
 H816 H 0.29116 0.78595 0.21287
 H817 H 0.29712 0.73977 0.17779
 H818 H 0.32672 0.75823 0.20549
 H819 H 0.18024 0.76701 0.28982
 H820 H 0.20891 0.74060 0.31779
 H821 H 0.23681 0.71086 0.17440
 H822 H 0.26420 0.68241 0.20409
 H823 H 0.24143 0.82550 0.28982
 H824 H 0.26535 0.79572 0.31814
 H825 H 0.20866 0.68248 0.25939
 H826 H 0.17971 0.71077 0.23551
 H827 H 0.32345 0.79505 0.26194
 H828 H 0.29692 0.82450 0.23427
 O829 O 0.75042 0.31708 0.28823
 O830 O 0.78020 0.32413 0.25157
 O831 O 0.68159 0.28505 0.24741
 O832 O 0.67177 0.24990 0.22280
 O833 O 0.71157 0.24933 0.32000
 O834 O 0.74764 0.21895 0.32841
 O835 O 0.75148 0.21041 0.18350
 O836 O 0.72154 0.24702 0.17558
 O837 O 0.81978 0.24696 0.21679
 O838 O 0.82747 0.27648 0.25435
 O839 O 0.78616 0.17922 0.25220
 O840 O 0.74783 0.17148 0.28195
 O841 O 0.75118 0.17911 0.21599
 O842 O 0.71989 0.17170 0.25343
 O843 O 0.81850 0.21071 0.25288
 O844 O 0.82587 0.24925 0.28344
 O845 O 0.78858 0.24354 0.18424
 O846 O 0.75790 0.27530 0.17435
 O847 O 0.75017 0.28535 0.32038
 O848 O 0.77765 0.24787 0.32926
 O849 O 0.68051 0.24810 0.28709
 O850 O 0.67502 0.21740 0.24943
 O851 O 0.71343 0.31693 0.25109
 O852 O 0.75189 0.32455 0.22197
 Zr853 Zr 0.74942 0.29553 0.25232
 O854 O 0.77466 0.27230 0.22829
 Zr855 Zr 0.70253 0.24917 0.25146
 O856 O 0.72568 0.22397 0.22738
 Zr857 Zr 0.74806 0.24937 0.29943
 O858 O 0.77328 0.22417 0.27756
 Zr859 Zr 0.75219 0.24651 0.20444
 O860 O 0.72657 0.27226 0.22590
 Zr861 Zr 0.79758 0.24696 0.25233
 O862 O 0.77452 0.27245 0.27662
 Zr863 Zr 0.75036 0.20067 0.25174
 O864 O 0.72485 0.22368 0.27599
 O865 O 0.72397 0.27393 0.27661
 O866 O 0.77623 0.22179 0.22728
 C867 C 0.75103 0.30966 0.31270
 C868 C 0.68916 0.30940 0.24831
 C869 C 0.68740 0.24825 0.31171
 C870 C 0.75141 0.18617 0.19144
 C871 C 0.81278 0.24472 0.19232
 C872 C 0.81067 0.18642 0.25258
 H873 H 0.78580 0.28407 0.21715
 H874 H 0.78389 0.21325 0.28998
 H875 H 0.71245 0.28551 0.28756
 H876 H 0.71384 0.21316 0.21602
 H877 H 0.71028 0.26268 0.17944
 H878 H 0.67937 0.24283 0.20612
 H879 H 0.82259 0.23428 0.29574
 H880 H 0.79242 0.25930 0.32305
 H881 H 0.74866 0.29148 0.18039
 H882 H 0.73654 0.32182 0.20994
 H883 H 0.76161 0.17549 0.29539
 H884 H 0.73505 0.20527 0.32198
 H885 H 0.79386 0.31803 0.26437
 H886 H 0.82328 0.29011 0.24082
 H887 H 0.67969 0.20487 0.26387
 H888 H 0.70756 0.17503 0.23846
 C889 C 0.25235 0.10747 0.10946
 C890 C 0.24015 0.08272 0.11339
 C891 C 0.24015 0.06408 0.09293
 C892 C 0.25210 0.06987 0.06829
 C893 C 0.26387 0.09508 0.06518
 N894 N 0.26363 0.11291 0.08547
 C895 C 0.25275 0.12802 0.13049
 N896 N 0.25458 0.15405 0.12340
 C897 C 0.25465 0.17400 0.14162
 C898 C 0.25288 0.16823 0.16891
 C899 C 0.25154 0.14147 0.17664
 C900 C 0.25154 0.12139 0.15759
 H901 H 0.23015 0.04530 0.09617
 H902 H 0.27391 0.10037 0.04689
 H903 H 0.25591 0.19431 0.13471
 H904 H 0.25039 0.13598 0.19743
 H905 H 0.23012 0.07788 0.13179
 H906 H 0.25093 0.10096 0.16417
 C907 C 0.75137 0.60442 0.61206
 C908 C 0.73403 0.58257 0.61326
 C909 C 0.73424 0.56385 0.59286
 C910 C 0.75172 0.56673 0.57135
 C911 C 0.76835 0.58908 0.57057
 N912 N 0.76772 0.60717 0.59063
 C913 C 0.75204 0.62468 0.63331
 N914 N 0.75871 0.65012 0.62706
 C915 C 0.75947 0.66977 0.64559
 C916 C 0.75352 0.66423 0.67233
 C917 C 0.74715 0.63798 0.67925
 C918 C 0.74637 0.61822 0.65987
 H919 H 0.72084 0.54703 0.59385
 H920 H 0.78197 0.59199 0.55415
 H921 H 0.76467 0.68968 0.63938
 H922 H 0.74249 0.63271 0.69961
 H923 H 0.72017 0.58011 0.62954
 H924 H 0.74171 0.59809 0.66576
 C925 C 0.74450 0.89361 0.11025
 C926 C 0.73251 0.91844 0.11419
 C927 C 0.73305 0.93724 0.09389
 C928 C 0.74531 0.93156 0.06938
 C929 C 0.75636 0.90608 0.06604
 N930 N 0.75575 0.88813 0.08625
 C931 C 0.74523 0.87323 0.13147
 N932 N 0.74770 0.84721 0.12460
 C933 C 0.74881 0.82746 0.14302
 C934 C 0.74764 0.83344 0.17029
 C935 C 0.74541 0.86019 0.17778
 C936 C 0.74426 0.88006 0.15853
 H937 H 0.72338 0.95617 0.09723
 H938 H 0.76645 0.90076 0.04780
 H939 H 0.75073 0.80715 0.13629
 H940 H 0.74470 0.86584 0.19854
 H941 H 0.72245 0.92331 0.13255
 H942 H 0.74322 0.90052 0.16494
 C943 C 0.24912 0.39170 0.60451
 C944 C 0.26701 0.39080 0.58307
 C945 C 0.26681 0.41110 0.56422
 C946 C 0.24879 0.43219 0.56657
 C947 C 0.23161 0.43266 0.58853
 N948 N 0.23224 0.41272 0.60676
 C949 C 0.24838 0.37055 0.62490
 N950 N 0.24091 0.37678 0.65016
 C951 C 0.23986 0.35835 0.66990
 C952 C 0.24628 0.33172 0.66464
 C953 C 0.25355 0.32481 0.63860
 C954 C 0.25468 0.34411 0.61874
 H955 H 0.28064 0.41037 0.54772
 H956 H 0.21756 0.44874 0.59102
 H957 H 0.23395 0.36453 0.68964
 H958 H 0.25862 0.30453 0.63358
 H959 H 0.28126 0.37485 0.58103
 H960 H 0.26001 0.33825 0.59875
 C961 C 0.74263 0.10797 0.89355
 C962 C 0.71910 0.09884 0.90542
 C963 C 0.72041 0.07892 0.92466
 C964 C 0.74513 0.06872 0.93249
 C965 C 0.76819 0.07845 0.92022
 N966 N 0.76639 0.09740 0.90106
 C967 C 0.74211 0.12844 0.87269
 N968 N 0.75772 0.12541 0.85081
 C969 C 0.75831 0.14370 0.83095
 C970 C 0.74312 0.16697 0.83292
 C971 C 0.72721 0.17070 0.85549
 C972 C 0.72638 0.15128 0.87529
 H973 H 0.70224 0.07156 0.93359
 H974 H 0.78754 0.07081 0.92575
 H975 H 0.77107 0.14034 0.81394
 H976 H 0.71529 0.18847 0.85767
 H977 H 0.69993 0.10665 0.89949
 H978 H 0.71407 0.15432 0.89270
 C979 C 0.24430 0.61015 0.39007
 C980 C 0.22693 0.58834 0.38866
 C981 C 0.22716 0.56939 0.40888
 C982 C 0.24459 0.57209 0.43044
 C983 C 0.26131 0.59436 0.43139
 N984 N 0.26070 0.61264 0.41149
 C985 C 0.24522 0.63051 0.36891
 N986 N 0.25245 0.65578 0.37525
 C987 C 0.25404 0.67539 0.35672
 C988 C 0.24854 0.66995 0.32989
 C989 C 0.24137 0.64394 0.32291
 C990 C 0.23964 0.62423 0.34230
 H991 H 0.21381 0.55255 0.40770
 H992 H 0.27501 0.59704 0.44778
 H993 H 0.25989 0.69511 0.36296
 H994 H 0.23706 0.63878 0.30245
 H995 H 0.21310 0.58603 0.37235
 H996 H 0.23457 0.60423 0.33633
 C997 C 0.25677 0.89340 0.89234
 C998 C 0.27027 0.89069 0.91660
 C999 C 0.26883 0.91091 0.93542
 C1000 C 0.25410 0.93412 0.93032
 C1001 C 0.24150 0.93629 0.90538
 N1002 N 0.24308 0.91618 0.88739
 C1003 C 0.25697 0.87207 0.87207
 N1004 N 0.25318 0.87844 0.84602
 C1005 C 0.25272 0.85979 0.82646
 C1006 C 0.25589 0.83277 0.83271
 C1007 C 0.25960 0.82580 0.85949
 C1008 C 0.26012 0.84528 0.87914
 H1009 H 0.27973 0.90859 0.95386
 H1010 H 0.22960 0.95353 0.90054
 H1011 H 0.24957 0.86609 0.80613
 H1012 H 0.26191 0.80524 0.86535
 H1013 H 0.28220 0.87337 0.92099
 H1014 H 0.26232 0.83922 0.89966
 C1015 C 0.75597 0.39080 0.39306
 C1016 C 0.77371 0.38984 0.41463
 C1017 C 0.77336 0.41005 0.43355
 C1018 C 0.75539 0.43115 0.43109
 C1019 C 0.73827 0.43165 0.40906
 N1020 N 0.73904 0.41178 0.39078
 C1021 C 0.75524 0.36957 0.37278
 N1022 N 0.74799 0.37566 0.34741
 C1023 C 0.74670 0.35703 0.32788
 C1024 C 0.75254 0.33035 0.33354
 C1025 C 0.75968 0.32363 0.35968
 C1026 C 0.76110 0.34312 0.37928
 H1027 H 0.78702 0.40921 0.45019
 H1028 H 0.72415 0.44767 0.40657
 H1029 H 0.74084 0.36304 0.30806
 H1030 H 0.76424 0.30330 0.36501
 H1031 H 0.78794 0.37387 0.41674
 H1032 H 0.76621 0.33737 0.39937
 C1033 C 0.11055 0.25356 0.10327
 C1034 C 0.11320 0.26784 0.07945
 C1035 C 0.09286 0.26699 0.06062
 C1036 C 0.06972 0.25197 0.06530
 C1037 C 0.06780 0.23828 0.08966
 N1038 N 0.08790 0.23945 0.10769
 C1039 C 0.13148 0.25374 0.12395
 N1040 N 0.12449 0.24921 0.14971
 C1041 C 0.14261 0.24882 0.16977
 C1042 C 0.16972 0.25290 0.16437
 C1043 C 0.17739 0.25729 0.13788
 C1044 C 0.15840 0.25773 0.11768
 H1045 H 0.09494 0.27866 0.04264
 H1046 H 0.05059 0.22616 0.09413
 H1047 H 0.13581 0.24510 0.18985
 H1048 H 0.19807 0.26035 0.13271
 H1049 H 0.13046 0.28006 0.07553
 H1050 H 0.16491 0.26061 0.09738
 C1051 C 0.61106 0.74204 0.60822
 C1052 C 0.61191 0.72364 0.58726
 C1053 C 0.59152 0.72336 0.56845
 C1054 C 0.57041 0.74141 0.57040
 C1055 C 0.56999 0.75911 0.59190
 N1056 N 0.59001 0.75894 0.61008
 C1057 C 0.63232 0.74339 0.62850
 N1058 N 0.62611 0.75146 0.65357
 C1059 C 0.64462 0.75312 0.67321
 C1060 C 0.67132 0.74674 0.66803
 C1061 C 0.67824 0.73889 0.64215
 C1062 C 0.65884 0.73714 0.62240
 H1063 H 0.59227 0.70924 0.55223
 H1064 H 0.55394 0.77327 0.59402
 H1065 H 0.63844 0.75944 0.69282
 H1066 H 0.69857 0.73380 0.63723
 H1067 H 0.62793 0.70941 0.58553
 H1068 H 0.66468 0.73133 0.60253
 C1069 C 0.11085 0.75022 0.89554
 C1070 C 0.11370 0.73695 0.91991
 C1071 C 0.09321 0.73794 0.93852
 C1072 C 0.06963 0.75197 0.93304
 C1073 C 0.06749 0.76462 0.90816
 N1074 N 0.08780 0.76341 0.89037
 C1075 C 0.13206 0.75006 0.87517
 N1076 N 0.12531 0.75372 0.84921
 C1077 C 0.14370 0.75402 0.82940
 C1078 C 0.17082 0.75073 0.83526
 C1079 C 0.17823 0.74728 0.86196
 C1080 C 0.15899 0.74696 0.88191
 H1081 H 0.09559 0.72730 0.95710
 H1082 H 0.05004 0.77618 0.90316
 H1083 H 0.13706 0.75697 0.80914
 H1084 H 0.19891 0.74488 0.86749
 H1085 H 0.13130 0.72549 0.92449
 H1086 H 0.16532 0.74485 0.90236
 C1087 C 0.60458 0.24813 0.39021
 C1088 C 0.59069 0.22503 0.39732
 C1089 C 0.57142 0.22625 0.41725
 C1090 C 0.56560 0.25050 0.42956
 C1091 C 0.57976 0.27318 0.42173
 N1092 N 0.59889 0.27141 0.40271
 C1093 C 0.62560 0.24753 0.36980
 N1094 N 0.64853 0.26132 0.37393
 C1095 C 0.66867 0.26148 0.35587
 C1096 C 0.66601 0.24772 0.33176
 C1097 C 0.64236 0.23375 0.32694
 C1098 C 0.62224 0.23335 0.34604
 H1099 H 0.56100 0.20834 0.42308
 H1100 H 0.57581 0.29216 0.43100
 H1101 H 0.68652 0.27273 0.36014
 H1102 H 0.63959 0.22293 0.30854
 H1103 H 0.59510 0.20618 0.38800
 H1104 H 0.60405 0.22252 0.34210
 C1105 C 0.89194 0.74986 0.10737
 C1106 C 0.88906 0.73649 0.08306
 C1107 C 0.90928 0.73792 0.06418
 C1108 C 0.93262 0.75245 0.06935
 C1109 C 0.93477 0.76524 0.09415
 N1110 N 0.91472 0.76361 0.11221
 C1111 C 0.87094 0.74933 0.12796
 N1112 N 0.87782 0.75303 0.15389
 C1113 C 0.85953 0.75316 0.17382
 C1114 C 0.83241 0.74970 0.16808
 C1115 C 0.82490 0.74611 0.14142
 C1116 C 0.84402 0.74594 0.12138
 H1117 H 0.90692 0.72716 0.04568
 H1118 H 0.95203 0.77719 0.09890
 H1119 H 0.86622 0.75621 0.19404
 H1120 H 0.80422 0.74357 0.13597
 H1121 H 0.87166 0.72463 0.07874
 H1122 H 0.83758 0.74378 0.10097
 C1123 C 0.39005 0.24583 0.60908
 C1124 C 0.38909 0.22891 0.58689
 C1125 C 0.40910 0.23026 0.56775
 C1126 C 0.43005 0.24837 0.57060
 C1127 C 0.43076 0.26441 0.59338
 N1128 N 0.41101 0.26277 0.61181
 C1129 C 0.36872 0.24588 0.62937
 N1130 N 0.37456 0.25305 0.65483
 C1131 C 0.35575 0.25398 0.67427
 C1132 C 0.32910 0.24786 0.66845
 C1133 C 0.32266 0.24068 0.64225
 C1134 C 0.34232 0.23964 0.62275
 H1135 H 0.40819 0.21731 0.55058
 H1136 H 0.44679 0.27848 0.59626
 H1137 H 0.36158 0.25985 0.69413
 H1138 H 0.30239 0.23592 0.63675
 H1139 H 0.37322 0.21462 0.58438
 H1140 H 0.33667 0.23464 0.60261
 C1141 C 0.88535 0.25181 0.89756
 C1142 C 0.88175 0.26476 0.92200
 C1143 C 0.90212 0.26443 0.94082
 C1144 C 0.92625 0.25130 0.93551
 C1145 C 0.92907 0.23891 0.91058
 N1146 N 0.90892 0.23951 0.89258
 C1147 C 0.86453 0.25155 0.87675
 N1148 N 0.87191 0.24787 0.85097
 C1149 C 0.85401 0.24714 0.83073
 C1150 C 0.82670 0.24998 0.83592
 C1151 C 0.81862 0.25350 0.86241
 C1152 C 0.83739 0.25427 0.88283
 H1153 H 0.89926 0.27507 0.95931
 H1154 H 0.94709 0.22824 0.90561
 H1155 H 0.86118 0.24416 0.81067
 H1156 H 0.79777 0.25558 0.86743
 H1157 H 0.86373 0.27560 0.92643
 H1158 H 0.83055 0.25642 0.90310
 C1159 C 0.39430 0.75565 0.39182
 C1160 C 0.41577 0.77352 0.39175
 C1161 C 0.43482 0.77213 0.41188
 C1162 C 0.43263 0.75291 0.43193
 C1163 C 0.41055 0.73588 0.43170
 N1164 N 0.39217 0.73767 0.41194
 C1165 C 0.37404 0.75577 0.37051
 N1166 N 0.34874 0.74796 0.37624
 C1167 C 0.32927 0.74712 0.35747
 C1168 C 0.33492 0.75396 0.33098
 C1169 C 0.36096 0.76175 0.32461
 C1170 C 0.38050 0.76277 0.34427
 H1171 H 0.45141 0.78584 0.41172
 H1172 H 0.40817 0.72095 0.44701
 H1173 H 0.30952 0.74074 0.36321
 H1174 H 0.36625 0.76712 0.30444
 H1175 H 0.41775 0.78855 0.37651
 H1176 H 0.40054 0.76838 0.33879
 C1177 C 0.10775 0.10976 0.24818
 C1178 C 0.09336 0.10367 0.22508
 C1179 C 0.07445 0.08342 0.22571
 C1180 C 0.06945 0.06953 0.24941
 C1181 C 0.08441 0.07624 0.27206
 N1182 N 0.10306 0.09577 0.27085
 C1183 C 0.12798 0.13095 0.24828
 N1184 N 0.15118 0.12723 0.26176
 C1185 C 0.17062 0.14602 0.26238
 C1186 C 0.16694 0.17041 0.24941
 C1187 C 0.14297 0.17479 0.23582
 C1188 C 0.12356 0.15504 0.23501
 H1189 H 0.06384 0.07844 0.20763
 H1190 H 0.08105 0.06615 0.29079
 H1191 H 0.18879 0.14201 0.27323
 H1192 H 0.13942 0.19333 0.22548
 H1193 H 0.09705 0.11412 0.20662
 H1194 H 0.10514 0.15870 0.22447
 C1195 C 0.60867 0.60646 0.74801
 C1196 C 0.59189 0.60360 0.72586
 C1197 C 0.57250 0.58381 0.72589
 C1198 C 0.56954 0.56726 0.74808
 C1199 C 0.58707 0.57031 0.76954
 N1200 N 0.60604 0.58955 0.76897
 C1201 C 0.62903 0.62752 0.74905
 N1202 N 0.65285 0.62254 0.76096
 C1203 C 0.67236 0.64120 0.76251
 C1204 C 0.66815 0.66674 0.75215
 C1205 C 0.64354 0.67238 0.74026
 C1206 C 0.62403 0.65281 0.73854
 H1207 H 0.55957 0.58159 0.70881
 H1208 H 0.58551 0.55753 0.78679
 H1209 H 0.69102 0.63614 0.77197
 H1210 H 0.63951 0.69179 0.73193
 H1211 H 0.59391 0.61634 0.70863
 H1212 H 0.60510 0.65756 0.72945
 C1213 C 0.88908 0.10365 0.75241
 C1214 C 0.88817 0.08155 0.73540
 C1215 C 0.90851 0.06278 0.73632
 C1216 C 0.92971 0.06592 0.75412
 C1217 C 0.92992 0.08821 0.77083
 N1218 N 0.90997 0.10638 0.76944
 C1219 C 0.86818 0.12429 0.75189
 N1220 N 0.87463 0.14974 0.75833
 C1221 C 0.85640 0.16969 0.75821
 C1222 C 0.82976 0.16443 0.75163
 C1223 C 0.82266 0.13823 0.74529
 C1224 C 0.84174 0.11818 0.74536
 H1225 H 0.90790 0.04592 0.72298
 H1226 H 0.94600 0.09120 0.78483
 H1227 H 0.86270 0.18954 0.76352
 H1228 H 0.80233 0.13318 0.74024
 H1229 H 0.87228 0.07903 0.72110
 H1230 H 0.83567 0.09808 0.74083
 C1231 C 0.39340 0.60785 0.24713
 C1232 C 0.39299 0.58629 0.22943
 C1233 C 0.41292 0.56711 0.23085
 C1234 C 0.43315 0.56925 0.24990
 C1235 C 0.43308 0.59121 0.26702
 N1236 N 0.41353 0.60979 0.26516
 C1237 C 0.37261 0.62859 0.24648
 N1238 N 0.37895 0.65384 0.25380
 C1239 C 0.36074 0.67380 0.25386
 C1240 C 0.33421 0.66876 0.24666
 C1241 C 0.32722 0.64279 0.23935
 C1242 C 0.34631 0.62273 0.23916
 H1243 H 0.41261 0.55058 0.21710
 H1244 H 0.44850 0.59350 0.28187
 H1245 H 0.36694 0.69346 0.25992
 H1246 H 0.30698 0.63795 0.23378
 H1247 H 0.37774 0.58444 0.21436
 H1248 H 0.34034 0.60277 0.23391
 C1249 C 0.11129 0.89451 0.74753
 C1250 C 0.11416 0.91890 0.73435
 C1251 C 0.09369 0.93753 0.73551
 C1252 C 0.07016 0.93206 0.74967
 C1253 C 0.06799 0.90711 0.76213
 N1254 N 0.08826 0.88933 0.76076
 C1255 C 0.13244 0.87410 0.74733
 N1256 N 0.12560 0.84825 0.75128
 C1257 C 0.14390 0.82841 0.75187
 C1258 C 0.17106 0.83412 0.74865
 C1259 C 0.17858 0.86069 0.74477
 C1260 C 0.15940 0.88068 0.74411
 H1261 H 0.09604 0.95606 0.72483
 H1262 H 0.05055 0.90203 0.77369
 H1263 H 0.13716 0.80826 0.75512
 H1264 H 0.19929 0.86609 0.74239
 H1265 H 0.13174 0.92349 0.72284
 H1266 H 0.16582 0.90103 0.74173
 C1267 C 0.60882 0.39014 0.24464
 C1268 C 0.59532 0.39731 0.22128
 C1269 C 0.57624 0.41741 0.22217
 C1270 C 0.57022 0.42980 0.24637
 C1271 C 0.58415 0.42210 0.26924
 N1272 N 0.60305 0.40287 0.26780
 C1273 C 0.62937 0.36930 0.24458
 N1274 N 0.65176 0.37272 0.25942
 C1275 C 0.67129 0.35410 0.26048
 C1276 C 0.66850 0.33010 0.24661
 C1277 C 0.64541 0.32602 0.23150
 C1278 C 0.62593 0.34570 0.23019
 H1279 H 0.56604 0.42320 0.20411
 H1280 H 0.58010 0.43151 0.28816
 H1281 H 0.68871 0.35782 0.27258
 H1282 H 0.64255 0.30772 0.22056
 H1283 H 0.59984 0.38784 0.20250
 H1284 H 0.60812 0.34227 0.21858
 C1285 C 0.89351 0.89271 0.25149
 C1286 C 0.89196 0.91510 0.23490
 C1287 C 0.91223 0.93397 0.23550
 C1288 C 0.93397 0.93072 0.25264
 C1289 C 0.93521 0.90774 0.26836
 N1290 N 0.91522 0.88953 0.26740
 C1291 C 0.87217 0.87246 0.25193
 N1292 N 0.87839 0.84679 0.25769
 C1293 C 0.85972 0.82722 0.25823
 C1294 C 0.83289 0.83308 0.25302
 C1295 C 0.82603 0.85954 0.24756
 C1296 C 0.84553 0.87921 0.24698
 H1297 H 0.91091 0.95124 0.22273
 H1298 H 0.95185 0.90451 0.28163
 H1299 H 0.86590 0.80713 0.26273
 H1300 H 0.80561 0.86506 0.24350
 H1301 H 0.87548 0.91792 0.22136
 H1302 H 0.83966 0.89950 0.24308
 C1303 C 0.38808 0.39303 0.74919
 C1304 C 0.39052 0.41112 0.72808
 C1305 C 0.41132 0.42941 0.72813
 C1306 C 0.42955 0.42982 0.74919
 C1307 C 0.42650 0.41143 0.76991
 N1308 N 0.40623 0.39354 0.76930
 C1309 C 0.36649 0.37318 0.74977
 N1310 N 0.37130 0.34870 0.76018
 C1311 C 0.35239 0.32939 0.76081
 C1312 C 0.32677 0.33439 0.75087
 C1313 C 0.32125 0.35972 0.74062
 C1314 C 0.34105 0.37909 0.73994
 H1315 H 0.41320 0.44334 0.71182
 H1316 H 0.44020 0.41134 0.78652
 H1317 H 0.35739 0.31020 0.76911
 H1318 H 0.30177 0.36445 0.73275
 H1319 H 0.37679 0.41087 0.71150
 H1320 H 0.33639 0.39853 0.73205
 C1321 C 0.10046 0.25392 0.88794
 C1322 C 0.08697 0.27732 0.89467
 C1323 C 0.06842 0.27696 0.91531
 C1324 C 0.06272 0.25319 0.92881
 C1325 C 0.07664 0.23018 0.92126
 N1326 N 0.09508 0.23117 0.90151
 C1327 C 0.12094 0.25369 0.86697
 N1328 N 0.14411 0.24039 0.87125
 C1329 C 0.16392 0.23973 0.85284
 C1330 C 0.16070 0.25247 0.82822
 C1331 C 0.13675 0.26584 0.82321
 C1332 C 0.11695 0.26677 0.84266
 H1333 H 0.05881 0.29533 0.92104
 H1334 H 0.07278 0.21142 0.93105
 H1335 H 0.18203 0.22906 0.85735
 H1336 H 0.13355 0.27594 0.80446
 H1337 H 0.09128 0.29581 0.88457
 H1338 H 0.09857 0.27724 0.83864
 C1339 C 0.60973 0.74325 0.39292
 C1340 C 0.59675 0.71966 0.40016
 C1341 C 0.57745 0.72024 0.42007
 C1342 C 0.57080 0.74430 0.43231
 C1343 C 0.58412 0.76746 0.42444
 N1344 N 0.60324 0.76634 0.40537
 C1345 C 0.63034 0.74348 0.37214
 N1346 N 0.65266 0.75837 0.37572
 C1347 C 0.67228 0.75953 0.35715
 C1348 C 0.66962 0.74573 0.33308
 C1349 C 0.64661 0.73058 0.32884
 C1350 C 0.62705 0.72917 0.34845
 H1351 H 0.56752 0.70203 0.42580
 H1352 H 0.57935 0.78634 0.43353
 H1353 H 0.68969 0.77160 0.36098
 H1354 H 0.64391 0.71963 0.31050
 H1355 H 0.60177 0.70097 0.39081
 H1356 H 0.60931 0.71749 0.34493
 C1357 C 0.89175 0.75564 0.89548
 C1358 C 0.89844 0.77941 0.90835
 C1359 C 0.91890 0.77953 0.92710
 C1360 C 0.93233 0.75593 0.93352
 C1361 C 0.92500 0.73259 0.92005
 N1362 N 0.90534 0.73307 0.90149
 C1363 C 0.87057 0.75472 0.87522
 N1364 N 0.87424 0.73989 0.85291
 C1365 C 0.85553 0.73834 0.83344
 C1366 C 0.83121 0.75173 0.83619
 C1367 C 0.82682 0.76671 0.85926
 C1368 C 0.84656 0.76849 0.87870
 H1369 H 0.92438 0.79809 0.93651
 H1370 H 0.93470 0.71393 0.92453
 H1371 H 0.85953 0.72641 0.81600
 H1372 H 0.80832 0.77737 0.86204
 H1373 H 0.88833 0.79778 0.90356
 H1374 H 0.84296 0.78013 0.89643
 C1375 C 0.38895 0.26131 0.39315
 C1376 C 0.40997 0.27970 0.39288
 C1377 C 0.42913 0.27889 0.41292
 C1378 C 0.42742 0.25982 0.43313
 C1379 C 0.40581 0.24220 0.43307
 N1380 N 0.38733 0.24339 0.41337
 C1381 C 0.36872 0.26067 0.37185
 N1382 N 0.34366 0.25216 0.37762
 C1383 C 0.32429 0.25049 0.35881
 C1384 C 0.32985 0.25711 0.33226
 C1385 C 0.35565 0.26569 0.32588
 C1386 C 0.37506 0.26756 0.34556
 H1387 H 0.44545 0.29293 0.41257
 H1388 H 0.40390 0.22726 0.44843
 H1389 H 0.30470 0.24365 0.36456
 H1390 H 0.36083 0.27104 0.30567
 H1391 H 0.41155 0.29466 0.37751
 H1392 H 0.39493 0.27372 0.34006
 C1393 C 0.11103 0.75850 0.10720
 C1394 C 0.10189 0.78247 0.09631
 C1395 C 0.08136 0.78203 0.07763
 C1396 C 0.07052 0.75777 0.06938
 C1397 C 0.08026 0.73426 0.08068
 N1398 N 0.09983 0.73520 0.09931
 C1399 C 0.13227 0.75813 0.12734
 N1400 N 0.12958 0.74230 0.14911
 C1401 C 0.14849 0.74112 0.16840
 C1402 C 0.17201 0.75591 0.16594
 C1403 C 0.17539 0.77199 0.14343
 C1404 C 0.15539 0.77341 0.12422
 H1405 H 0.07409 0.80052 0.06939
 H1406 H 0.07220 0.71523 0.07476
 H1407 H 0.14534 0.72834 0.18543
 H1408 H 0.19329 0.78372 0.14093
 H1409 H 0.11023 0.80129 0.10253
 H1410 H 0.15814 0.78591 0.10691
 C1411 C 0.60961 0.24487 0.60500
 C1412 C 0.60956 0.22654 0.58397
 C1413 C 0.58899 0.22713 0.56537
 C1414 C 0.56868 0.24606 0.56756
 C1415 C 0.56909 0.26360 0.58917
 N1416 N 0.58923 0.26254 0.60715
 C1417 C 0.63093 0.24525 0.62518
 N1418 N 0.62503 0.25358 0.65022
 C1419 C 0.64356 0.25454 0.66985
 C1420 C 0.66999 0.24713 0.66468
 C1421 C 0.67665 0.23900 0.63884
 C1422 C 0.65718 0.23794 0.61908
 H1423 H 0.58900 0.21304 0.54911
 H1424 H 0.55359 0.27832 0.59152
 H1425 H 0.63762 0.26121 0.68942
 H1426 H 0.69681 0.23320 0.63397
 H1427 H 0.62499 0.21170 0.58205
 H1428 H 0.66277 0.23190 0.59921
 C1429 C 0.89422 0.24241 0.11250
 C1430 C 0.90347 0.21890 0.10074
 C1431 C 0.92292 0.22024 0.08098
 C1432 C 0.93265 0.24493 0.07260
 C1433 C 0.92292 0.26795 0.08485
 N1434 N 0.90436 0.26615 0.10444
 C1435 C 0.87347 0.24190 0.13318
 N1436 N 0.87591 0.25783 0.15491
 C1437 C 0.85710 0.25858 0.17435
 C1438 C 0.83387 0.24331 0.17202
 C1439 C 0.83084 0.22699 0.14965
 C1440 C 0.85075 0.22597 0.13035
 H1441 H 0.93010 0.20211 0.07192
 H1442 H 0.93004 0.28730 0.07877
 H1443 H 0.85998 0.27157 0.19125
 H1444 H 0.81317 0.21491 0.14722
 H1445 H 0.89591 0.19975 0.10697
 H1446 H 0.84813 0.21342 0.11307
 C1447 C 0.39112 0.74226 0.60742
 C1448 C 0.38979 0.72536 0.58524
 C1449 C 0.41013 0.72591 0.56639
 C1450 C 0.43173 0.74321 0.56956
 C1451 C 0.43249 0.75959 0.59208
 N1452 N 0.41250 0.75864 0.61026
 C1453 C 0.37008 0.74259 0.62794
 N1454 N 0.37656 0.74957 0.65328
 C1455 C 0.35821 0.75065 0.67311
 C1456 C 0.33140 0.74488 0.66784
 C1457 C 0.32425 0.73789 0.64177
 C1458 C 0.34348 0.73668 0.62183
 H1459 H 0.40909 0.71284 0.54932
 H1460 H 0.44888 0.77320 0.59511
 H1461 H 0.36458 0.75632 0.69286
 H1462 H 0.30380 0.73331 0.63677
 H1463 H 0.37351 0.71157 0.58262
 H1464 H 0.33739 0.73175 0.60180
 C1465 C 0.24335 0.11192 0.89237
 C1466 C 0.21985 0.10236 0.90397
 C1467 C 0.22123 0.08206 0.92282
 C1468 C 0.24599 0.07182 0.93049
 C1469 C 0.26902 0.08206 0.91858
 N1470 N 0.26716 0.10138 0.89979
 C1471 C 0.24273 0.13286 0.87196
 N1472 N 0.25806 0.13025 0.84983
 C1473 C 0.25832 0.14888 0.83026
 C1474 C 0.24304 0.17204 0.83275
 C1475 C 0.22749 0.17536 0.85564
 C1476 C 0.22700 0.15564 0.87516
 H1477 H 0.20310 0.07450 0.93165
 H1478 H 0.28843 0.07458 0.92415
 H1479 H 0.27076 0.14577 0.81296
 H1480 H 0.21546 0.19298 0.85823
 H1481 H 0.20064 0.11019 0.89817
 H1482 H 0.21488 0.15833 0.89275
 C1483 C 0.74719 0.60762 0.39271
 C1484 C 0.72999 0.58565 0.39159
 C1485 C 0.73099 0.56649 0.41158
 C1486 C 0.74909 0.56907 0.43262
 C1487 C 0.76547 0.59160 0.43341
 N1488 N 0.76411 0.61008 0.41372
 C1489 C 0.74739 0.62811 0.37161
 N1490 N 0.75442 0.65345 0.37789
 C1491 C 0.75532 0.67317 0.35941
 C1492 C 0.74933 0.66777 0.33266
 C1493 C 0.74236 0.64169 0.32574
 C1494 C 0.74132 0.62188 0.34509
 H1495 H 0.71777 0.54953 0.41060
 H1496 H 0.77956 0.59427 0.44946
 H1497 H 0.76097 0.69295 0.36561
 H1498 H 0.73761 0.63657 0.30537
 H1499 H 0.71573 0.58337 0.37564
 H1500 H 0.73635 0.60184 0.33915
 C1501 C 0.74894 0.10449 0.11140
 C1502 C 0.73636 0.07996 0.11544
 C1503 C 0.73610 0.06124 0.09509
 C1504 C 0.74821 0.06671 0.07045
 C1505 C 0.76007 0.09184 0.06710
 N1506 N 0.76014 0.10975 0.08733
 C1507 C 0.74994 0.12494 0.13250
 N1508 N 0.75209 0.15096 0.12551
 C1509 C 0.75279 0.17079 0.14384
 C1510 C 0.75136 0.16488 0.17112
 C1511 C 0.74975 0.13811 0.17873
 C1512 C 0.74910 0.11816 0.15958
 H1513 H 0.72583 0.04263 0.09845
 H1514 H 0.77005 0.09695 0.04873
 H1515 H 0.75435 0.19112 0.13704
 H1516 H 0.74893 0.13251 0.19951
 H1517 H 0.72632 0.07533 0.13389
 H1518 H 0.74832 0.09770 0.16605
 C1519 C 0.24510 0.60751 0.61005
 C1520 C 0.22776 0.58566 0.61130
 C1521 C 0.22783 0.56700 0.59083
 C1522 C 0.24513 0.57000 0.56918
 C1523 C 0.26194 0.59222 0.56850
 N1524 N 0.26143 0.61024 0.58862
 C1525 C 0.24584 0.62783 0.63125
 N1526 N 0.25281 0.65318 0.62494
 C1527 C 0.25390 0.67286 0.64342
 C1528 C 0.24803 0.66742 0.67019
 C1529 C 0.24126 0.64129 0.67718
 C1530 C 0.24009 0.62151 0.65783
 H1531 H 0.21440 0.55021 0.59181
 H1532 H 0.27554 0.59513 0.55207
 H1533 H 0.25952 0.69265 0.63718
 H1534 H 0.23674 0.63612 0.69759
 H1535 H 0.21397 0.58318 0.62763
 H1536 H 0.23521 0.60145 0.66378
 C1537 C 0.75210 0.89025 0.89424
 C1538 C 0.76915 0.88929 0.91636
 C1539 C 0.76823 0.90954 0.93521
 C1540 C 0.75046 0.93072 0.93210
 C1541 C 0.73385 0.93107 0.90968
 N1542 N 0.73518 0.91117 0.89146
 C1543 C 0.75220 0.86911 0.87385
 N1544 N 0.74591 0.87527 0.84824
 C1545 C 0.74552 0.85671 0.82859
 C1546 C 0.75132 0.83005 0.83437
 C1547 C 0.75752 0.82329 0.86074
 C1548 C 0.75803 0.84269 0.88045
 H1549 H 0.78144 0.90877 0.95222
 H1550 H 0.71981 0.94709 0.90674
 H1551 H 0.74043 0.86277 0.80857
 H1552 H 0.76206 0.80299 0.86618
 H1553 H 0.78333 0.87335 0.91892
 H1554 H 0.76243 0.83688 0.90070
 C1555 C 0.25295 0.39472 0.39025
 C1556 C 0.27053 0.39389 0.41196
 C1557 C 0.26950 0.41378 0.43118
 C1558 C 0.25099 0.43444 0.42890
 C1559 C 0.23426 0.43500 0.40659
 N1560 N 0.23564 0.41540 0.38805
 C1561 C 0.25267 0.37357 0.36988
 N1562 N 0.24537 0.37959 0.34450
 C1563 C 0.24439 0.36095 0.32494
 C1564 C 0.25059 0.33435 0.33059
 C1565 C 0.25785 0.32773 0.35672
 C1566 C 0.25895 0.34721 0.37634
 H1567 H 0.28300 0.41301 0.44795
 H1568 H 0.21987 0.45080 0.40414
 H1569 H 0.23852 0.36689 0.30510
 H1570 H 0.26279 0.30748 0.36203
 H1571 H 0.28509 0.37821 0.41401
 H1572 H 0.26413 0.34149 0.39643
 C1573 C 0.25714 0.89319 0.10500
 C1574 C 0.27322 0.89127 0.08223
 C1575 C 0.27249 0.91138 0.06319
 C1576 C 0.25577 0.93335 0.06669
 C1577 C 0.24050 0.93489 0.08999
 N1578 N 0.24156 0.91506 0.10833
 C1579 C 0.25675 0.87209 0.12547
 N1580 N 0.25106 0.87854 0.15114
 C1581 C 0.25025 0.86008 0.17089
 C1582 C 0.25507 0.83320 0.16520
 C1583 C 0.26052 0.82611 0.13876
 C1584 C 0.26141 0.84541 0.11892
 H1585 H 0.28490 0.90980 0.04565
 H1586 H 0.22750 0.95167 0.09340
 H1587 H 0.24569 0.86642 0.19093
 H1588 H 0.26418 0.80563 0.13336
 H1589 H 0.28648 0.87463 0.07924
 H1590 H 0.26519 0.83934 0.09864
 C1591 C 0.75489 0.38767 0.60592
 C1592 C 0.77240 0.38663 0.58417
 C1593 C 0.77242 0.40721 0.56559
 C1594 C 0.75504 0.42876 0.56854
 C1595 C 0.73805 0.42922 0.59067
 N1596 N 0.73848 0.40902 0.60862
 C1597 C 0.75409 0.36641 0.62623
 N1598 N 0.74680 0.37261 0.65155
 C1599 C 0.74564 0.35413 0.67124
 C1600 C 0.75175 0.32745 0.66589
 C1601 C 0.75886 0.32056 0.63979
 C1602 C 0.76011 0.33992 0.61998
 H1603 H 0.78598 0.40638 0.54887
 H1604 H 0.72436 0.44554 0.59355
 H1605 H 0.73979 0.36031 0.69100
 H1606 H 0.76360 0.30023 0.63468
 H1607 H 0.78625 0.37039 0.58170
 H1608 H 0.76527 0.33406 0.59994
 C1609 C 0.10545 0.10842 0.74902
 C1610 C 0.09131 0.10179 0.72593
 C1611 C 0.07253 0.08144 0.72680
 C1612 C 0.06754 0.06789 0.75070
 C1613 C 0.08216 0.07522 0.77338
 N1614 N 0.10065 0.09487 0.77193
 C1615 C 0.12545 0.12980 0.74891
 N1616 N 0.14847 0.12660 0.76280
 C1617 C 0.16770 0.14559 0.76332
 C1618 C 0.16397 0.16966 0.74977
 C1619 C 0.14015 0.17354 0.73579
 C1620 C 0.12096 0.15357 0.73510
 H1621 H 0.06190 0.07620 0.70881
 H1622 H 0.07852 0.06569 0.79234
 H1623 H 0.18571 0.14200 0.77456
 H1624 H 0.13655 0.19186 0.72508
 H1625 H 0.09501 0.11195 0.70731
 H1626 H 0.10264 0.15684 0.72426
 C1627 C 0.61116 0.60736 0.24675
 C1628 C 0.59815 0.60045 0.22304
 C1629 C 0.57887 0.58053 0.22337
 C1630 C 0.57216 0.56806 0.24735
 C1631 C 0.58579 0.57532 0.27056
 N1632 N 0.60487 0.59443 0.26968
 C1633 C 0.63145 0.62843 0.24727
 N1634 N 0.65401 0.62495 0.26185
 C1635 C 0.67336 0.64379 0.26311
 C1636 C 0.67016 0.66802 0.24971
 C1637 C 0.64684 0.67217 0.23499
 C1638 C 0.62758 0.65232 0.23349
 H1639 H 0.56894 0.57505 0.20507
 H1640 H 0.58124 0.56579 0.28931
 H1641 H 0.69100 0.64002 0.27487
 H1642 H 0.64369 0.69062 0.22437
 H1643 H 0.60309 0.61013 0.20445
 H1644 H 0.60963 0.65578 0.22210
 C1645 C 0.11278 0.89538 0.24354
 C1646 C 0.11545 0.91953 0.22988
 C1647 C 0.09518 0.93834 0.23130
 C1648 C 0.07205 0.93336 0.24630
 C1649 C 0.06985 0.90846 0.25886
 N1650 N 0.08996 0.89049 0.25726
 C1651 C 0.13403 0.87503 0.24344
 N1652 N 0.12741 0.84919 0.24784
 C1653 C 0.14587 0.82948 0.24854
 C1654 C 0.17297 0.83534 0.24501
 C1655 C 0.18025 0.86190 0.24069
 C1656 C 0.16093 0.88174 0.23990
 H1657 H 0.09741 0.95670 0.22030
 H1658 H 0.05257 0.90363 0.27076
 H1659 H 0.13932 0.80932 0.25208
 H1660 H 0.20090 0.86740 0.23796
 H1661 H 0.13278 0.92382 0.21789
 H1662 H 0.16718 0.90210 0.23716
 C1663 C 0.60797 0.38980 0.74127
 C1664 C 0.59038 0.39343 0.71987
 C1665 C 0.57094 0.41312 0.72136
 C1666 C 0.56876 0.42882 0.74426
 C1667 C 0.58696 0.42488 0.76500
 N1668 N 0.60595 0.40580 0.76299
 C1669 C 0.62861 0.36901 0.74083
 N1670 N 0.65239 0.37366 0.75292
 C1671 C 0.67197 0.35507 0.75387
 C1672 C 0.66785 0.32984 0.74279
 C1673 C 0.64340 0.32457 0.73040
 C1674 C 0.62383 0.34414 0.72921
 H1675 H 0.55745 0.41602 0.70482
 H1676 H 0.58597 0.43693 0.78279
 H1677 H 0.69048 0.35983 0.76378
 H1678 H 0.63945 0.30536 0.72160
 H1679 H 0.59185 0.38143 0.70208
 H1680 H 0.60493 0.33960 0.71994
 C1681 C 0.89102 0.10501 0.25196
 C1682 C 0.89007 0.08302 0.23482
 C1683 C 0.91042 0.06425 0.23556
 C1684 C 0.93166 0.06725 0.25336
 C1685 C 0.93208 0.08960 0.26997
 N1686 N 0.91209 0.10775 0.26879
 C1687 C 0.86991 0.12546 0.25188
 N1688 N 0.87619 0.15091 0.25850
 C1689 C 0.85775 0.17068 0.25877
 C1690 C 0.83108 0.16523 0.25244
 C1691 C 0.82416 0.13902 0.24594
 C1692 C 0.84345 0.11916 0.24560
 H1693 H 0.90970 0.04741 0.22220
 H1694 H 0.94828 0.09256 0.28384
 H1695 H 0.86394 0.19055 0.26412
 H1696 H 0.80384 0.13385 0.24098
 H1697 H 0.87408 0.08053 0.22063
 H1698 H 0.83752 0.09904 0.24093
 C1699 C 0.38967 0.60533 0.74819
 C1700 C 0.39194 0.58699 0.72731
 C1701 C 0.41230 0.56821 0.72785
 C1702 C 0.43021 0.56755 0.74918
 C1703 C 0.42717 0.58605 0.76978
 N1704 N 0.40740 0.60444 0.76865
 C1705 C 0.36880 0.62593 0.74818
 N1706 N 0.37439 0.65027 0.75849
 C1707 C 0.35614 0.67018 0.75897
 C1708 C 0.33037 0.66594 0.74909
 C1709 C 0.32407 0.64084 0.73876
 C1710 C 0.34326 0.62086 0.73811
 H1711 H 0.41414 0.55417 0.71165
 H1712 H 0.44056 0.58592 0.78663
 H1713 H 0.36170 0.68917 0.76735
 H1714 H 0.30441 0.63675 0.73095
 H1715 H 0.37849 0.58747 0.71051
 H1716 H 0.33801 0.60156 0.73026
 C1717 C 0.89180 0.89114 0.75313
 C1718 C 0.88995 0.91370 0.73678
 C1719 C 0.91006 0.93273 0.73743
 C1720 C 0.93200 0.92941 0.75429
 C1721 C 0.93339 0.90642 0.76998
 N1722 N 0.91356 0.88806 0.76897
 C1723 C 0.87078 0.87058 0.75335
 N1724 N 0.87734 0.84497 0.75908
 C1725 C 0.85896 0.82513 0.75950
 C1726 C 0.83208 0.83064 0.75417
 C1727 C 0.82489 0.85701 0.74869
 C1728 C 0.84409 0.87695 0.74826
 H1729 H 0.90858 0.95005 0.72475
 H1730 H 0.95013 0.90319 0.78313
 H1731 H 0.86537 0.80514 0.76408
 H1732 H 0.80441 0.86230 0.74463
 H1733 H 0.87339 0.91649 0.72332
 H1734 H 0.83793 0.89716 0.74441
 C1735 C 0.39056 0.39470 0.25026
 C1736 C 0.39047 0.41586 0.23206
 C1737 C 0.41090 0.43454 0.23276
 C1738 C 0.43132 0.43231 0.25160
 C1739 C 0.43093 0.41074 0.26923
 N1740 N 0.41088 0.39263 0.26807
 C1741 C 0.36931 0.37442 0.25023
 N1742 N 0.37519 0.34912 0.25774
 C1743 C 0.35662 0.32948 0.25792
 C1744 C 0.33023 0.33490 0.25051
 C1745 C 0.32367 0.36099 0.24322
 C1746 C 0.34310 0.38073 0.24299
 H1747 H 0.41085 0.45077 0.21862
 H1748 H 0.44649 0.40838 0.28391
 H1749 H 0.36248 0.30971 0.26400
 H1750 H 0.30355 0.36613 0.23749
 H1751 H 0.37508 0.41776 0.21714
 H1752 H 0.33750 0.40076 0.23760
   
