data_POSCAR
  _audit_creation_date              2014-09-24
  _audit_creation_method            'ToBaCCo'
  _symmetry_space_group_name_H-M    'P1'
  _symmetry_Int_Tables_number       1
  _symmetry_cell_setting            triclinic
  loop_
  _symmetry_equiv_pos_as_xyz
 x,y,z
_cell_length_a 99.3753
_cell_length_b 99.6951
_cell_length_c 100.3806
_cell_angle_alpha 90.013200
_cell_angle_beta 89.943800
_cell_angle_gamma 90.042600
loop_
  _atom_site_label
  _atom_site_type_symbol
  _atom_site_fract_x
  _atom_site_fract_y
  _atom_site_fract_z
N1 N 0.35169 0.31614 0.32609
 N2 N 0.35104 0.32594 0.31734
 C3 C 0.36135 0.32475 0.30868
 C4 C 0.36874 0.31363 0.31226
 C5 C 0.36242 0.30838 0.32331
 H6 H 0.36341 0.33148 0.30048
 H7 H 0.36545 0.29965 0.32895
 Cu8 Cu 0.33692 0.33940 0.31833
 Cu9 Cu 0.33874 0.31428 0.34056
 Cu10 Cu 0.31328 0.33803 0.34224
 N11 N 0.32253 0.35258 0.31927
 N12 N 0.31330 0.35198 0.32866
 C13 C 0.30470 0.36231 0.32716
 C14 C 0.30881 0.36968 0.31628
 C15 C 0.32012 0.36331 0.31148
 H16 H 0.29619 0.36438 0.33357
 H17 H 0.32616 0.36636 0.30304
 N18 N 0.31499 0.32315 0.35506
 N19 N 0.32469 0.31412 0.35444
 C20 C 0.32326 0.30545 0.36465
 C21 C 0.31217 0.30926 0.37195
 C22 C 0.30713 0.32047 0.36568
 H23 H 0.32985 0.29708 0.36672
 H24 H 0.29848 0.32628 0.36874
 H25 H 0.32302 0.32371 0.33090
 H26 H 0.33375 0.33436 0.34190
 N27 N 0.35095 0.81509 -0.17350
 N28 N 0.35261 0.82608 -0.18057
 C29 C 0.36316 0.82446 -0.18883
 C30 C 0.36829 0.81179 -0.18678
 C31 C 0.36041 0.80609 -0.17700
 H32 H 0.36697 0.83201 -0.19561
 H33 H 0.36171 0.79632 -0.17249
 Cu34 Cu 0.34112 0.84160 -0.17806
 Cu35 Cu 0.33739 0.81366 -0.15957
 Cu36 Cu 0.31712 0.84154 -0.15455
 N37 N 0.32650 0.85451 -0.17829
 N38 N 0.31713 0.85448 -0.16903
 C39 C 0.30855 0.86469 -0.17124
 C40 C 0.31279 0.87133 -0.18253
 C41 C 0.32418 0.86471 -0.18679
 H42 H 0.29999 0.86714 -0.16503
 H43 H 0.33040 0.86719 -0.19530
 N44 N 0.31570 0.82511 -0.14378
 N45 N 0.32320 0.81438 -0.14587
 C46 C 0.32004 0.80499 -0.13672
 C47 C 0.31008 0.81011 -0.12864
 C48 C 0.30754 0.82283 -0.13331
 H49 H 0.32488 0.79533 -0.13573
 H50 H 0.30048 0.82999 -0.12922
 H51 H 0.32412 0.82750 -0.16773
 H52 H 0.33661 0.83364 -0.15529
 N53 N 0.85236 0.31756 -0.17366
 N54 N 0.85107 0.32559 -0.18398
 C55 C 0.86107 0.32308 -0.19270
 C56 C 0.86894 0.31297 -0.18752
 C57 C 0.86322 0.30968 -0.17544
 H58 H 0.86262 0.32828 -0.20203
 H59 H 0.86675 0.30224 -0.16843
 Cu60 Cu 0.83670 0.33881 -0.18473
 Cu61 Cu 0.84020 0.31828 -0.15846
 Cu62 Cu 0.81264 0.33943 -0.16113
 N63 N 0.82257 0.35231 -0.18482
 N64 N 0.81307 0.35235 -0.17567
 C65 C 0.80473 0.36275 -0.17788
 C66 C 0.80928 0.36948 -0.18899
 C67 C 0.82060 0.36270 -0.19317
 H68 H 0.79618 0.36536 -0.17172
 H69 H 0.82701 0.36527 -0.20151
 N70 N 0.81434 0.32577 -0.14707
 N71 N 0.82496 0.31790 -0.14589
 C72 C 0.82331 0.30995 -0.13516
 C73 C 0.81113 0.31304 -0.12938
 C74 C 0.80567 0.32307 -0.13709
 H75 H 0.83043 0.30250 -0.13178
 H76 H 0.79618 0.32810 -0.13545
 H77 H 0.82407 0.32429 -0.16988
 H78 H 0.83311 0.33791 -0.16070
 N79 N 0.84954 0.81561 0.32522
 N80 N 0.84924 0.82488 0.31590
 C81 C 0.85978 0.82309 0.30763
 C82 C 0.86696 0.81214 0.31205
 C83 C 0.86026 0.80760 0.32320
 H84 H 0.86216 0.82932 0.29913
 H85 H 0.86304 0.79920 0.32942
 Cu86 Cu 0.83533 0.83861 0.31560
 Cu87 Cu 0.83618 0.81482 0.33941
 Cu88 Cu 0.81171 0.83957 0.33967
 N89 N 0.82173 0.85264 0.31616
 N90 N 0.81254 0.85298 0.32561
 C91 C 0.80459 0.86376 0.32377
 C92 C 0.80909 0.87044 0.31261
 C93 C 0.81995 0.86321 0.30799
 H94 H 0.79626 0.86658 0.33013
 H95 H 0.82613 0.86556 0.29942
 N96 N 0.81251 0.82514 0.35305
 N97 N 0.82182 0.81569 0.35295
 C98 C 0.81978 0.80745 0.36341
 C99 C 0.80869 0.81198 0.37032
 C100 C 0.80430 0.82317 0.36356
 H101 H 0.82594 0.79888 0.36591
 H102 H 0.79584 0.82945 0.36621
 H103 H 0.82086 0.82425 0.32914
 H104 H 0.83207 0.83515 0.33944
 N105 N 0.64859 0.68444 0.32431
 N106 N 0.64905 0.67554 0.31464
 C107 C 0.63857 0.67757 0.30637
 C108 C 0.63126 0.68828 0.31116
 C109 C 0.63782 0.69243 0.32253
 H110 H 0.63631 0.67165 0.29763
 H111 H 0.63491 0.70056 0.32906
 Cu112 Cu 0.66309 0.66196 0.31392
 Cu113 Cu 0.66181 0.68483 0.33860
 Cu114 Cu 0.68656 0.66037 0.33806
 N115 N 0.67681 0.64803 0.31408
 N116 N 0.68595 0.64747 0.32353
 C117 C 0.69397 0.63680 0.32139
 C118 C 0.68958 0.63041 0.31003
 C119 C 0.67869 0.63771 0.30561
 H120 H 0.70226 0.63382 0.32770
 H121 H 0.67253 0.63554 0.29700
 N122 N 0.68552 0.67429 0.35195
 N123 N 0.67607 0.68360 0.35217
 C124 C 0.67794 0.69148 0.36293
 C125 C 0.68906 0.68687 0.36970
 C126 C 0.69365 0.67600 0.36256
 H127 H 0.67165 0.69988 0.36571
 H128 H 0.70221 0.66978 0.36499
 H129 H 0.67731 0.67596 0.32806
 H130 H 0.66617 0.66454 0.33788
 N131 N 0.65021 0.18340 -0.17663
 N132 N 0.65056 0.17426 -0.18608
 C133 C 0.64008 0.17620 -0.19438
 C134 C 0.63291 0.18711 -0.18984
 C135 C 0.63954 0.19147 -0.17859
 H136 H 0.63774 0.17010 -0.20298
 H137 H 0.63672 0.19978 -0.17225
 Cu138 Cu 0.66448 0.16053 -0.18649
 Cu139 Cu 0.66342 0.18398 -0.16234
 Cu140 Cu 0.68791 0.15925 -0.16232
 N141 N 0.67810 0.14651 -0.18608
 N142 N 0.68723 0.14607 -0.17660
 C143 C 0.69525 0.13537 -0.17856
 C144 C 0.69086 0.12883 -0.18984
 C145 C 0.67999 0.13607 -0.19441
 H146 H 0.70355 0.13250 -0.17221
 H147 H 0.67388 0.13382 -0.20304
 N148 N 0.68697 0.17345 -0.14871
 N149 N 0.67765 0.18289 -0.14872
 C150 C 0.67957 0.19095 -0.13812
 C151 C 0.69059 0.18633 -0.13120
 C152 C 0.69507 0.17526 -0.13810
 H153 H 0.67338 0.19948 -0.13552
 H154 H 0.70352 0.16896 -0.13550
 H155 H 0.67882 0.17473 -0.17267
 H156 H 0.66755 0.16366 -0.16259
 N157 N 0.14821 0.68406 -0.17717
 N158 N 0.14912 0.67452 -0.18618
 C159 C 0.13889 0.67581 -0.19491
 C160 C 0.13129 0.68670 -0.19108
 C161 C 0.13740 0.69173 -0.17983
 H162 H 0.13700 0.66925 -0.20328
 H163 H 0.13412 0.70020 -0.17394
 Cu164 Cu 0.16338 0.66117 -0.18535
 Cu165 Cu 0.16088 0.68568 -0.16247
 Cu166 Cu 0.18641 0.66205 -0.16086
 N167 N 0.17773 0.64794 -0.18431
 N168 N 0.18671 0.64835 -0.17469
 C169 C 0.19526 0.63797 -0.17608
 C170 C 0.19140 0.63075 -0.18714
 C171 C 0.18027 0.63726 -0.19216
 H172 H 0.20354 0.63574 -0.16946
 H173 H 0.17441 0.63431 -0.20074
 N174 N 0.18441 0.67667 -0.14779
 N175 N 0.17466 0.68565 -0.14838
 C176 C 0.17584 0.69410 -0.13797
 C177 C 0.18683 0.69022 -0.13057
 C178 C 0.19205 0.67918 -0.13699
 H179 H 0.16915 0.70237 -0.13581
 H180 H 0.20067 0.67335 -0.13390
 H181 H 0.17686 0.67661 -0.17204
 H182 H 0.16592 0.66560 -0.16158
 N183 N 0.14942 0.18528 0.32405
 N184 N 0.15018 0.17627 0.31450
 C185 C 0.13993 0.17816 0.30593
 C186 C 0.13246 0.18890 0.31039
 C187 C 0.13868 0.19321 0.32188
 H188 H 0.13792 0.17210 0.29722
 H189 H 0.13552 0.20137 0.32826
 Cu190 Cu 0.16422 0.16268 0.31435
 Cu191 Cu 0.16216 0.18583 0.33873
 Cu192 Cu 0.18681 0.16128 0.33935
 N193 N 0.17784 0.14871 0.31520
 N194 N 0.18663 0.14819 0.32498
 C195 C 0.19464 0.13743 0.32324
 C196 C 0.19060 0.13095 0.31179
 C197 C 0.17995 0.13828 0.30691
 H198 H 0.20268 0.13446 0.32987
 H199 H 0.17410 0.13606 0.29811
 N200 N 0.18535 0.17541 0.35301
 N201 N 0.17594 0.18476 0.35277
 C202 C 0.17749 0.19282 0.36344
 C203 C 0.18836 0.18828 0.37064
 C204 C 0.19313 0.17727 0.36384
 H205 H 0.17118 0.20131 0.36585
 H206 H 0.20159 0.17107 0.36663
 H207 H 0.17800 0.17677 0.32883
 H208 H 0.16646 0.16550 0.33838
 N209 N 0.64835 0.31525 0.67467
 N210 N 0.64883 0.32499 0.68351
 C211 C 0.63854 0.32352 0.69215
 C212 C 0.63134 0.31230 0.68847
 C213 C 0.63776 0.30726 0.67738
 H214 H 0.63637 0.33012 0.70043
 H215 H 0.63488 0.29852 0.67166
 Cu216 Cu 0.66275 0.33870 0.68268
 Cu217 Cu 0.66135 0.31374 0.66021
 Cu218 Cu 0.68644 0.33791 0.65879
 N219 N 0.67698 0.35210 0.68190
 N220 N 0.68622 0.35172 0.67251
 C221 C 0.69470 0.36214 0.67410
 C222 C 0.69051 0.36936 0.68505
 C223 C 0.67927 0.36280 0.68979
 H224 H 0.70318 0.36438 0.66772
 H225 H 0.67320 0.36569 0.69826
 N226 N 0.68497 0.32314 0.64582
 N227 N 0.67541 0.31394 0.64634
 C228 C 0.67696 0.30543 0.63602
 C229 C 0.68799 0.30951 0.62876
 C230 C 0.69285 0.32072 0.63516
 H231 H 0.67050 0.29698 0.63384
 H232 H 0.70140 0.32673 0.63215
 H233 H 0.67688 0.32332 0.67000
 H234 H 0.66601 0.33390 0.65907
 N235 N 0.64909 0.81541 1.17677
 N236 N 0.65015 0.82473 1.18599
 C237 C 0.63986 0.82343 1.19467
 C238 C 0.63207 0.81274 1.19062
 C239 C 0.63813 0.80786 1.17927
 H240 H 0.63805 0.82986 1.20316
 H241 H 0.63472 0.79956 1.17320
 Cu242 Cu 0.66459 0.83791 1.18559
 Cu243 Cu 0.66174 0.81398 1.16204
 Cu244 Cu 0.68710 0.83779 1.16045
 N245 N 0.67863 0.85145 1.18421
 N246 N 0.68739 0.85137 1.17437
 C247 C 0.69573 0.86195 1.17567
 C248 C 0.69194 0.86896 1.18689
 C249 C 0.68109 0.86212 1.19209
 H250 H 0.70381 0.86446 1.16888
 H251 H 0.67534 0.86483 1.20083
 N252 N 0.68516 0.82325 1.14730
 N253 N 0.67549 0.81417 1.14790
 C254 C 0.67673 0.80576 1.13746
 C255 C 0.68766 0.80979 1.13003
 C256 C 0.69280 0.82086 1.13646
 H257 H 0.67012 0.79741 1.13532
 H258 H 0.70138 0.82677 1.13338
 H259 H 0.67787 0.82293 1.17155
 H260 H 0.66662 0.83416 1.16166
 N261 N 0.14878 0.31738 1.17371
 N262 N 0.14734 0.32828 1.18096
 C263 C 0.13692 0.32663 1.18939
 C264 C 0.13162 0.31403 1.18727
 C265 C 0.13930 0.30841 1.17727
 H266 H 0.13334 0.33408 1.19637
 H267 H 0.13786 0.29869 1.17270
 Cu268 Cu 0.15894 0.34373 1.17855
 Cu269 Cu 0.16217 0.31607 1.15957
 Cu270 Cu 0.18292 0.34374 1.15507
 N271 N 0.17389 0.35626 1.17916
 N272 N 0.18328 0.35626 1.16991
 C273 C 0.19206 0.36624 1.17239
 C274 C 0.18794 0.37270 1.18383
 C275 C 0.17641 0.36619 1.18790
 H276 H 0.20066 0.36871 1.16624
 H277 H 0.17020 0.36863 1.19642
 N278 N 0.18394 0.32759 1.14387
 N279 N 0.17625 0.31693 1.14573
 C280 C 0.17928 0.30768 1.13639
 C281 C 0.18933 0.31281 1.12842
 C282 C 0.19208 0.32540 1.13336
 H283 H 0.17434 0.29808 1.13526
 H284 H 0.19933 0.33249 1.12948
 H285 H 0.17570 0.32954 1.16797
 H286 H 0.16333 0.33611 1.15564
 N287 N 0.14919 0.81576 0.67756
 N288 N 0.15032 0.82503 0.68682
 C289 C 0.14007 0.82373 0.69553
 C290 C 0.13222 0.81310 0.69145
 C291 C 0.13821 0.80825 0.68005
 H292 H 0.13834 0.83009 0.70409
 H293 H 0.13477 0.79997 0.67398
 Cu294 Cu 0.16488 0.83810 0.68645
 Cu295 Cu 0.16187 0.81424 0.66287
 Cu296 Cu 0.18748 0.83777 0.66137
 N297 N 0.17903 0.85153 0.68507
 N298 N 0.18782 0.85136 0.67527
 C299 C 0.19626 0.86186 0.67660
 C300 C 0.19250 0.86890 0.68781
 C301 C 0.18157 0.86217 0.69297
 H302 H 0.20440 0.86427 0.66985
 H303 H 0.17583 0.86492 0.70171
 N304 N 0.18545 0.82324 0.64823
 N305 N 0.17566 0.81429 0.64878
 C306 C 0.17685 0.80584 0.63836
 C307 C 0.18788 0.80971 0.63100
 C308 C 0.19313 0.82072 0.63744
 H309 H 0.17015 0.79757 0.63620
 H310 H 0.20182 0.82651 0.63441
 H311 H 0.17808 0.82302 0.67243
 H312 H 0.16698 0.83439 0.66253
 N313 N 0.35490 0.68116 0.67194
 N314 N 0.35442 0.67183 0.68119
 C315 C 0.36420 0.67412 0.69018
 C316 C 0.37111 0.68546 0.68627
 C317 C 0.36504 0.68968 0.67467
 H318 H 0.36626 0.66792 0.69878
 H319 H 0.36787 0.69818 0.66858
 Cu320 Cu 0.34147 0.65725 0.68025
 Cu321 Cu 0.34273 0.68119 0.65682
 Cu322 Cu 0.31450 0.66097 0.66028
 N323 N 0.32579 0.64574 0.68183
 N324 N 0.31519 0.64736 0.67417
 C325 C 0.30599 0.63789 0.67715
 C326 C 0.31116 0.63003 0.68721
 C327 C 0.32371 0.63521 0.68997
 H328 H 0.29645 0.63659 0.67214
 H329 H 0.33087 0.63145 0.69717
 N330 N 0.31596 0.67522 0.64674
 N331 N 0.32684 0.68270 0.64527
 C332 C 0.32507 0.69103 0.63487
 C333 C 0.31252 0.68862 0.62960
 C334 C 0.30699 0.67857 0.63726
 H335 H 0.33242 0.69817 0.63128
 H336 H 0.29730 0.67385 0.63580
 H337 H 0.32792 0.67420 0.66922
 H338 H 0.33475 0.66177 0.65709
 N339 N 0.35172 0.18585 1.17468
 N340 N 0.35182 0.17665 1.18408
 C341 C 0.36235 0.17888 1.19223
 C342 C 0.36911 0.19004 1.18766
 C343 C 0.36217 0.19425 1.17653
 H344 H 0.36501 0.17281 1.20075
 H345 H 0.36460 0.20271 1.17022
 Cu346 Cu 0.33836 0.16248 1.18449
 Cu347 Cu 0.33816 0.18610 1.16065
 Cu348 Cu 0.31392 0.16102 1.16148
 N349 N 0.32473 0.14849 1.18493
 N350 N 0.31518 0.14798 1.17587
 C351 C 0.30728 0.13727 1.17826
 C352 C 0.31218 0.13080 1.18938
 C353 C 0.32323 0.13809 1.19339
 H354 H 0.29872 0.13431 1.17229
 H355 H 0.32975 0.13588 1.20173
 N356 N 0.31436 0.17512 1.14772
 N357 N 0.32361 0.18465 1.14738
 C358 C 0.32138 0.19253 1.13670
 C359 C 0.31024 0.18770 1.13010
 C360 C 0.30601 0.17670 1.13726
 H361 H 0.32747 0.20104 1.13381
 H362 H 0.29759 0.17025 1.13491
 H363 H 0.32327 0.17658 1.17145
 H364 H 0.33415 0.16576 1.16078
 N365 N 0.84900 0.68848 1.17726
 N366 N 0.84878 0.67884 1.18620
 C367 C 0.85975 0.67987 1.19400
 C368 C 0.86712 0.69077 1.18969
 C369 C 0.86006 0.69605 1.17910
 H370 H 0.86214 0.67326 1.20221
 H371 H 0.86273 0.70474 1.17321
 Cu372 Cu 0.83406 0.66602 1.18696
 Cu373 Cu 0.83472 0.69060 1.16418
 Cu374 Cu 0.81473 0.66239 1.15969
 N375 N 0.82275 0.65035 1.18446
 N376 N 0.81543 0.64882 1.17365
 C377 C 0.80866 0.63714 1.17444
 C378 C 0.81198 0.63111 1.18635
 C379 C 0.82092 0.63969 1.19250
 H380 H 0.80174 0.63340 1.16701
 H381 H 0.82569 0.63829 1.20208
 N382 N 0.81535 0.67738 1.14687
 N383 N 0.82273 0.68825 1.14877
 C384 C 0.82077 0.69677 1.13853
 C385 C 0.81173 0.69096 1.12988
 C386 C 0.80847 0.67872 1.13539
 H387 H 0.82560 0.70643 1.13743
 H388 H 0.80153 0.67142 1.13137
 H389 H 0.81932 0.67838 1.17156
 H390 H 0.83383 0.67014 1.16311
 N391 N 0.84768 0.18875 0.67897
 N392 N 0.84689 0.17919 0.68796
 C393 C 0.85762 0.17999 0.69612
 C394 C 0.86542 0.19065 0.69197
 C395 C 0.85887 0.19603 0.68112
 H396 H 0.85962 0.17329 0.70435
 H397 H 0.86206 0.20449 0.67515
 Cu398 Cu 0.83200 0.16657 0.68810
 Cu399 Cu 0.83412 0.19094 0.66518
 Cu400 Cu 0.81413 0.16288 0.65989
 N401 N 0.82073 0.15098 0.68513
 N402 N 0.81398 0.14943 0.67396
 C403 C 0.80723 0.13773 0.67441
 C404 C 0.80996 0.13171 0.68646
 C405 C 0.81853 0.14031 0.69306
 H406 H 0.80078 0.13392 0.66660
 H407 H 0.82288 0.13889 0.70283
 N408 N 0.81557 0.17775 0.64702
 N409 N 0.82293 0.18857 0.64920
 C410 C 0.82153 0.19705 0.63885
 C411 C 0.81286 0.19125 0.62982
 C412 C 0.80924 0.17908 0.63524
 H413 H 0.82642 0.20670 0.63795
 H414 H 0.80239 0.17184 0.63096
 H415 H 0.81820 0.17891 0.67185
 H416 H 0.83307 0.17047 0.66424
 N417 N 0.31690 0.35219 0.67555
 N418 N 0.32627 0.35159 0.68478
 C419 C 0.32484 0.36210 0.69311
 C420 C 0.31402 0.36958 0.68882
 C421 C 0.30919 0.36309 0.67769
 H422 H 0.33120 0.36423 0.70159
 H423 H 0.30076 0.36610 0.67158
 Cu424 Cu 0.33956 0.33726 0.68492
 Cu425 Cu 0.31551 0.33893 0.66139
 Cu426 Cu 0.33939 0.31359 0.66099
 N427 N 0.35311 0.32320 0.68429
 N428 N 0.35299 0.31397 0.67493
 C429 C 0.36352 0.30565 0.67672
 C430 C 0.37052 0.30996 0.68776
 C431 C 0.36373 0.32109 0.69235
 H432 H 0.36597 0.29721 0.67040
 H433 H 0.36643 0.32722 0.70083
 N434 N 0.32483 0.31492 0.64773
 N435 N 0.31575 0.32459 0.64787
 C436 C 0.30732 0.32288 0.63750
 C437 C 0.31133 0.31163 0.63060
 C438 C 0.32242 0.30680 0.63727
 H439 H 0.29896 0.32936 0.63505
 H440 H 0.32832 0.29810 0.63460
 H441 H 0.32449 0.32333 0.67161
 H442 H 0.33575 0.33401 0.66114
 N443 N 0.31395 0.85069 0.17575
 N444 N 0.32318 0.85020 0.18513
 C445 C 0.32144 0.86066 0.19346
 C446 C 0.31056 0.86798 0.18903
 C447 C 0.30603 0.86145 0.17780
 H448 H 0.32768 0.86291 0.20200
 H449 H 0.29770 0.86440 0.17152
 Cu450 Cu 0.33680 0.83617 0.18535
 Cu451 Cu 0.31305 0.83757 0.16145
 Cu452 Cu 0.33762 0.81296 0.16093
 N453 N 0.35078 0.82252 0.18457
 N454 N 0.35107 0.81351 0.17500
 C455 C 0.36185 0.80551 0.17671
 C456 C 0.36859 0.80977 0.18792
 C457 C 0.36139 0.82056 0.19270
 H458 H 0.36464 0.79730 0.17023
 H459 H 0.36379 0.82658 0.20134
 N460 N 0.32316 0.81405 0.14757
 N461 N 0.31379 0.82343 0.14778
 C462 C 0.30547 0.82160 0.13734
 C463 C 0.30985 0.81058 0.13032
 C464 C 0.32105 0.80600 0.13698
 H465 H 0.29692 0.82785 0.13494
 H466 H 0.32722 0.79750 0.13424
 H467 H 0.32233 0.82206 0.17156
 H468 H 0.33343 0.83328 0.16146
 N469 N 0.81618 0.35194 0.17353
 N470 N 0.82583 0.35199 0.18250
 C471 C 0.82399 0.36245 0.19080
 C472 C 0.81261 0.36922 0.18677
 C473 C 0.80788 0.36236 0.17582
 H474 H 0.83043 0.36503 0.19910
 H475 H 0.79911 0.36482 0.16992
 Cu476 Cu 0.83992 0.33847 0.18234
 Cu477 Cu 0.81521 0.33850 0.15948
 Cu478 Cu 0.84002 0.31405 0.15926
 N479 N 0.85364 0.32456 0.18224
 N480 N 0.85361 0.31502 0.17318
 C481 C 0.86416 0.30683 0.17526
 C482 C 0.87110 0.31151 0.18618
 C483 C 0.86424 0.32274 0.19041
 H484 H 0.86666 0.29819 0.16923
 H485 H 0.86685 0.32912 0.19874
 N486 N 0.82544 0.31474 0.14602
 N487 N 0.81598 0.32404 0.14608
 C488 C 0.80765 0.32192 0.13570
 C489 C 0.81213 0.31079 0.12889
 C490 C 0.82338 0.30646 0.13561
 H491 H 0.79905 0.32806 0.13319
 H492 H 0.82964 0.29799 0.13300
 H493 H 0.82501 0.32360 0.16994
 H494 H 0.83554 0.33431 0.15879
 N495 N 0.81203 0.84716 0.67820
 N496 N 0.82129 0.84650 0.68752
 C497 C 0.82032 0.85737 0.69543
 C498 C 0.80987 0.86515 0.69078
 C499 C 0.80477 0.85844 0.67988
 H500 H 0.82680 0.85950 0.70382
 H501 H 0.79654 0.86157 0.67356
 Cu502 Cu 0.83381 0.83160 0.68838
 Cu503 Cu 0.81019 0.83334 0.66464
 Cu504 Cu 0.83827 0.81303 0.66079
 N505 N 0.84950 0.82030 0.68615
 N506 N 0.85136 0.81325 0.67522
 C507 C 0.86308 0.80655 0.67617
 C508 C 0.86879 0.80965 0.68829
 C509 C 0.85999 0.81837 0.69442
 H510 H 0.86712 0.79991 0.66864
 H511 H 0.86116 0.82303 0.70408
 N512 N 0.82377 0.81414 0.64745
 N513 N 0.81295 0.82167 0.64906
 C514 C 0.80472 0.81995 0.63854
 C515 C 0.81067 0.81090 0.63000
 C516 C 0.82269 0.80739 0.63587
 H517 H 0.79510 0.82483 0.63723
 H518 H 0.82996 0.80029 0.63207
 H519 H 0.82181 0.81755 0.67210
 H520 H 0.83072 0.83207 0.66441
 N521 N 0.68442 0.64873 0.67602
 N522 N 0.67563 0.64901 0.68582
 C523 C 0.67779 0.63844 0.69389
 C524 C 0.68847 0.63125 0.68885
 C525 C 0.69248 0.63798 0.67752
 H526 H 0.67196 0.63603 0.70268
 H527 H 0.70054 0.63518 0.67083
 Cu528 Cu 0.66199 0.66294 0.68698
 Cu529 Cu 0.68456 0.66212 0.66192
 Cu530 Cu 0.65990 0.68663 0.66312
 N531 N 0.64795 0.67651 0.68716
 N532 N 0.64718 0.68574 0.67783
 C533 C 0.63643 0.69360 0.68020
 C534 C 0.63022 0.68901 0.69160
 C535 C 0.63769 0.67818 0.69579
 H536 H 0.63326 0.70190 0.67402
 H537 H 0.63567 0.67190 0.70434
 N538 N 0.67367 0.68587 0.64903
 N539 N 0.68307 0.67652 0.64857
 C540 C 0.69083 0.67858 0.63774
 C541 C 0.68604 0.68972 0.63117
 C542 C 0.67520 0.69413 0.63850
 H543 H 0.69926 0.67241 0.63477
 H544 H 0.66887 0.70265 0.63627
 H545 H 0.67572 0.67738 0.67278
 H546 H 0.66417 0.66632 0.66302
 N547 N 0.68457 0.14883 0.17605
 N548 N 0.67553 0.14954 0.18560
 C549 C 0.67727 0.13913 0.19400
 C550 C 0.68796 0.13162 0.18941
 C551 C 0.69238 0.13798 0.17804
 H552 H 0.67118 0.13708 0.20270
 H553 H 0.70056 0.13487 0.17164
 Cu554 Cu 0.66215 0.16379 0.18601
 Cu555 Cu 0.68540 0.16182 0.16161
 Cu556 Cu 0.66129 0.18688 0.16153
 N557 N 0.64839 0.17767 0.18545
 N558 N 0.64813 0.18667 0.17587
 C559 C 0.63753 0.19487 0.17772
 C560 C 0.63085 0.19075 0.18903
 C561 C 0.63792 0.17984 0.19372
 H562 H 0.63479 0.20309 0.17124
 H563 H 0.63550 0.17386 0.20239
 N564 N 0.67542 0.18546 0.14785
 N565 N 0.68460 0.17589 0.14786
 C566 C 0.69268 0.17750 0.13718
 C567 C 0.68832 0.18858 0.13023
 C568 C 0.67741 0.19342 0.13718
 H569 H 0.70103 0.17107 0.13457
 H570 H 0.67133 0.20202 0.13457
 H571 H 0.67666 0.17751 0.17185
 H572 H 0.66514 0.16646 0.16205
 N573 N 0.18285 0.64697 0.17744
 N574 N 0.17328 0.64747 0.18649
 C575 C 0.17480 0.63712 0.19499
 C576 C 0.18590 0.62987 0.19100
 C577 C 0.19079 0.63631 0.17986
 H578 H 0.16832 0.63494 0.20338
 H579 H 0.19941 0.63342 0.17394
 Cu580 Cu 0.15969 0.66150 0.18608
 Cu581 Cu 0.18423 0.66003 0.16309
 Cu582 Cu 0.16029 0.68532 0.16242
 N583 N 0.14640 0.67581 0.18572
 N584 N 0.14671 0.68512 0.17642
 C585 C 0.13636 0.69363 0.17830
 C586 C 0.12928 0.68939 0.18933
 C587 C 0.13583 0.67809 0.19383
 H588 H 0.13408 0.70215 0.17204
 H589 H 0.13300 0.67195 0.20226
 N590 N 0.17483 0.68382 0.14913
 N591 N 0.18394 0.67417 0.14938
 C592 C 0.19231 0.67571 0.13891
 C593 C 0.18823 0.68683 0.13185
 C594 C 0.17717 0.69175 0.13851
 H595 H 0.20064 0.66918 0.13650
 H596 H 0.17120 0.70036 0.13571
 H597 H 0.17501 0.67554 0.17321
 H598 H 0.16404 0.66493 0.16241
 N599 N 0.18475 0.14683 0.67840
 N600 N 0.17560 0.14770 0.68784
 C601 C 0.17723 0.13742 0.69641
 C602 C 0.18796 0.12983 0.69206
 C603 C 0.19252 0.13600 0.68064
 H604 H 0.17104 0.13550 0.70507
 H605 H 0.20078 0.13279 0.67438
 Cu606 Cu 0.16222 0.16194 0.68790
 Cu607 Cu 0.18578 0.15966 0.66383
 Cu608 Cu 0.16167 0.18470 0.66308
 N609 N 0.14845 0.17577 0.68693
 N610 N 0.14828 0.18463 0.67723
 C611 C 0.13759 0.19278 0.67882
 C612 C 0.13078 0.18876 0.69010
 C613 C 0.13785 0.17797 0.69503
 H614 H 0.13488 0.20089 0.67220
 H615 H 0.13534 0.17208 0.70373
 N616 N 0.17603 0.18313 0.64963
 N617 N 0.18521 0.17355 0.64990
 C618 C 0.19347 0.17504 0.63934
 C619 C 0.18925 0.18604 0.63219
 C620 C 0.17822 0.19096 0.63890
 H621 H 0.20187 0.16858 0.63696
 H622 H 0.17220 0.19954 0.63610
 H623 H 0.17686 0.17551 0.67374
 H624 H 0.16548 0.16432 0.66394
 N625 N 0.31512 0.64895 0.32324
 N626 N 0.32449 0.65003 0.31404
 C627 C 0.32329 0.63973 0.30541
 C628 C 0.31260 0.63191 0.30948
 C629 C 0.30763 0.63797 0.32079
 H630 H 0.32977 0.63793 0.29695
 H631 H 0.29931 0.63454 0.32685
 Cu632 Cu 0.33763 0.66451 0.31442
 Cu633 Cu 0.31353 0.66161 0.33790
 Cu634 Cu 0.33725 0.68703 0.33948
 N635 N 0.35113 0.67859 0.31581
 N636 N 0.35095 0.68734 0.32562
 C637 C 0.36151 0.69572 0.32433
 C638 C 0.36861 0.69197 0.31314
 C639 C 0.36184 0.68110 0.30795
 H640 H 0.36394 0.70381 0.33109
 H641 H 0.36461 0.67538 0.29921
 N642 N 0.32261 0.68506 0.35257
 N643 N 0.31356 0.67537 0.35197
 C644 C 0.30504 0.67660 0.36235
 C645 C 0.30897 0.68756 0.36975
 C646 C 0.32009 0.69272 0.36335
 H647 H 0.29669 0.66998 0.36447
 H648 H 0.32595 0.70132 0.36642
 H649 H 0.32245 0.67770 0.32836
 H650 H 0.33375 0.66659 0.33832
 N651 N 0.31271 0.15114 0.82171
 N652 N 0.32163 0.15164 0.81205
 C653 C 0.32043 0.14061 0.80440
 C654 C 0.31018 0.13289 0.80958
 C655 C 0.30544 0.13980 0.82053
 H656 H 0.32659 0.13835 0.79580
 H657 H 0.29741 0.13679 0.82718
 Cu658 Cu 0.33405 0.16658 0.81040
 Cu659 Cu 0.31120 0.16534 0.83493
 Cu660 Cu 0.33959 0.18546 0.83761
 N661 N 0.34997 0.17768 0.81202
 N662 N 0.35229 0.18477 0.82284
 C663 C 0.36413 0.19118 0.82152
 C664 C 0.36943 0.18787 0.80926
 C665 C 0.36026 0.17932 0.80344
 H666 H 0.36854 0.19777 0.82888
 H667 H 0.36107 0.17456 0.79378
 N668 N 0.32537 0.18482 0.85131
 N669 N 0.31442 0.17739 0.85012
 C670 C 0.30644 0.17944 0.86078
 C671 C 0.31270 0.18860 0.86897
 C672 C 0.32463 0.19184 0.86276
 H673 H 0.29681 0.17467 0.86244
 H674 H 0.33211 0.19889 0.86626
 H675 H 0.32270 0.18096 0.82687
 H676 H 0.33170 0.16647 0.83447
 N677 N 0.81471 0.64816 0.82259
 N678 N 0.82415 0.64914 0.81344
 C679 C 0.82291 0.63883 0.80483
 C680 C 0.81214 0.63111 0.80885
 C681 C 0.80714 0.63723 0.82011
 H682 H 0.82941 0.63697 0.79639
 H683 H 0.79875 0.63390 0.82613
 Cu684 Cu 0.83739 0.66353 0.81384
 Cu685 Cu 0.81314 0.66090 0.83719
 Cu686 Cu 0.83703 0.68619 0.83876
 N687 N 0.85096 0.67755 0.81520
 N688 N 0.85079 0.68636 0.82496
 C689 C 0.86140 0.69467 0.82365
 C690 C 0.86852 0.69082 0.81250
 C691 C 0.86171 0.67996 0.80735
 H692 H 0.86384 0.70280 0.83037
 H693 H 0.86448 0.67417 0.79866
 N694 N 0.82232 0.68437 0.85181
 N695 N 0.81321 0.67473 0.85121
 C696 C 0.80467 0.67605 0.86157
 C697 C 0.80864 0.68700 0.86895
 C698 C 0.81981 0.69207 0.86256
 H699 H 0.79628 0.66948 0.86370
 H700 H 0.82573 0.70064 0.86563
 H701 H 0.82222 0.67689 0.82762
 H702 H 0.83338 0.66577 0.83771
 N703 N 0.81403 0.15087 0.31985
 N704 N 0.82456 0.15063 0.31190
 C705 C 0.82375 0.13974 0.30397
 C706 C 0.81211 0.13293 0.30716
 C707 C 0.80615 0.14020 0.31724
 H708 H 0.83111 0.13689 0.29655
 H709 H 0.79687 0.13785 0.32238
 Cu710 Cu 0.83835 0.16445 0.31289
 Cu711 Cu 0.81135 0.16493 0.33305
 Cu712 Cu 0.83785 0.18713 0.33767
 N713 N 0.85196 0.17842 0.31419
 N714 N 0.85184 0.18711 0.32406
 C715 C 0.86250 0.19537 0.32287
 C716 C 0.86962 0.19160 0.31170
 C717 C 0.86274 0.18084 0.30640
 H718 H 0.86493 0.20345 0.32964
 H719 H 0.86548 0.17516 0.29763
 N720 N 0.82262 0.18566 0.35014
 N721 N 0.81239 0.17740 0.34824
 C722 C 0.80364 0.17873 0.35842
 C723 C 0.80862 0.18828 0.36701
 C724 C 0.82062 0.19249 0.36155
 H725 H 0.79444 0.17304 0.35959
 H726 H 0.82739 0.19991 0.36564
 H727 H 0.82363 0.17990 0.32494
 H728 H 0.83175 0.16719 0.33601
 N729 N 0.68543 0.35304 0.32322
 N730 N 0.67578 0.35235 0.31427
 C731 C 0.67726 0.36255 0.30555
 C732 C 0.68838 0.36989 0.30930
 C733 C 0.69335 0.36365 0.32051
 H734 H 0.67072 0.36455 0.29718
 H735 H 0.70201 0.36667 0.32630
 Cu736 Cu 0.66215 0.33835 0.31507
 Cu737 Cu 0.68689 0.34024 0.33782
 Cu738 Cu 0.66268 0.31519 0.33939
 N739 N 0.64862 0.32427 0.31606
 N740 N 0.64888 0.31524 0.32562
 C741 C 0.63836 0.30685 0.32415
 C742 C 0.63119 0.31087 0.31311
 C743 C 0.63789 0.32192 0.30819
 H744 H 0.63602 0.29854 0.33069
 H745 H 0.63506 0.32784 0.29961
 N746 N 0.67744 0.31682 0.35240
 N747 N 0.68666 0.32636 0.35182
 C748 C 0.69521 0.32487 0.36214
 C749 C 0.69113 0.31390 0.36945
 C750 C 0.67988 0.30902 0.36308
 H751 H 0.70370 0.33131 0.36426
 H752 H 0.67390 0.30048 0.36610
 H753 H 0.67743 0.32454 0.32821
 H754 H 0.66666 0.33555 0.33879
 N755 N 0.68560 0.85240 0.82326
 N756 N 0.67605 0.85218 0.81419
 C757 C 0.67783 0.86256 0.80578
 C758 C 0.68908 0.86955 0.80982
 C759 C 0.69379 0.86291 0.82092
 H760 H 0.67140 0.86496 0.79742
 H761 H 0.70240 0.86563 0.82692
 Cu762 Cu 0.66205 0.83855 0.81453
 Cu763 Cu 0.68652 0.83921 0.83757
 Cu764 Cu 0.66167 0.81472 0.83817
 N765 N 0.64825 0.82471 0.81484
 N766 N 0.64813 0.81543 0.82416
 C767 C 0.63744 0.80733 0.82228
 C768 C 0.63058 0.81182 0.81122
 C769 C 0.63762 0.82284 0.80672
 H770 H 0.63475 0.79895 0.82858
 H771 H 0.63508 0.82907 0.79827
 N772 N 0.67624 0.81571 0.85146
 N773 N 0.68571 0.82502 0.85122
 C774 C 0.69401 0.82314 0.86167
 C775 C 0.68951 0.81217 0.86872
 C776 C 0.67826 0.80767 0.86207
 H777 H 0.70259 0.82935 0.86408
 H778 H 0.67198 0.79927 0.86485
 H779 H 0.67680 0.82398 0.82743
 H780 H 0.66617 0.83496 0.83820
 N781 N 0.18408 0.35219 0.82569
 N782 N 0.17460 0.35228 0.81655
 C783 C 0.17663 0.36277 0.80832
 C784 C 0.18794 0.36952 0.81259
 C785 C 0.19245 0.36261 0.82361
 H786 H 0.17035 0.36538 0.79992
 H787 H 0.20110 0.36504 0.82968
 Cu788 Cu 0.16048 0.33876 0.81642
 Cu789 Cu 0.18478 0.33868 0.83969
 Cu790 Cu 0.15988 0.31426 0.83941
 N791 N 0.14668 0.32491 0.81624
 N792 N 0.14651 0.31535 0.82528
 C793 C 0.13593 0.30721 0.82300
 C794 C 0.12920 0.31196 0.81197
 C795 C 0.13620 0.32317 0.80790
 H796 H 0.13328 0.29856 0.82895
 H797 H 0.13378 0.32958 0.79955
 N798 N 0.17429 0.31486 0.85288
 N799 N 0.18377 0.32417 0.85300
 C800 C 0.19195 0.32198 0.86348
 C801 C 0.18737 0.31082 0.87017
 C802 C 0.17620 0.30653 0.86328
 H803 H 0.20053 0.32810 0.86614
 H804 H 0.16989 0.29804 0.86575
 H805 H 0.17511 0.32381 0.82902
 H806 H 0.16442 0.33450 0.84002
 N807 N 0.18588 0.85138 0.32486
 N808 N 0.17674 0.85115 0.31538
 C809 C 0.17875 0.86168 0.30719
 C810 C 0.18971 0.86875 0.31183
 C811 C 0.19401 0.86202 0.32302
 H812 H 0.17265 0.86412 0.29862
 H813 H 0.20233 0.86476 0.32942
 Cu814 Cu 0.16289 0.83734 0.31484
 Cu815 Cu 0.18637 0.83810 0.33902
 Cu816 Cu 0.16141 0.81383 0.33891
 N817 N 0.14870 0.82388 0.31524
 N818 N 0.14818 0.81472 0.32467
 C819 C 0.13731 0.80689 0.32272
 C820 C 0.13074 0.81142 0.31151
 C821 C 0.13815 0.82219 0.30698
 H822 H 0.13431 0.79864 0.32905
 H823 H 0.13591 0.82839 0.29843
 N824 N 0.17569 0.81457 0.35249
 N825 N 0.18520 0.82383 0.35252
 C826 C 0.19330 0.82181 0.36309
 C827 C 0.18862 0.81079 0.36994
 C828 C 0.17749 0.80641 0.36304
 H829 H 0.20188 0.82795 0.36571
 H830 H 0.17112 0.79799 0.36561
 H831 H 0.17698 0.82286 0.32860
 H832 H 0.16593 0.83409 0.33872
 C833 C 0.24673 0.99969 0.25577
 C834 C 0.25644 0.99965 0.24616
 C835 C 0.26253 1.01229 0.24111
 C836 C 0.26144 0.98696 0.24017
 C837 C 0.24148 0.98705 0.26164
 C838 C 0.24084 1.01237 0.26090
 C839 C 0.26249 1.01497 0.22740
 C840 C 0.26790 1.02693 0.22251
 C841 C 0.27354 1.03642 0.23125
 C842 C 0.27379 1.03359 0.24497
 C843 C 0.26841 1.02160 0.24985
 C844 C 0.25254 0.97776 0.23429
 C845 C 0.25736 0.96572 0.22899
 C846 C 0.27118 0.96274 0.22932
 C847 C 0.28009 0.97212 0.23495
 C848 C 0.27526 0.98413 0.24028
 C849 C 0.25018 0.97763 0.26744
 C850 C 0.24511 0.96567 0.27269
 C851 C 0.23121 0.96297 0.27236
 C852 C 0.22252 0.97256 0.26677
 C853 C 0.22760 0.98449 0.26151
 C854 C 0.24097 1.01500 0.27462
 C855 C 0.23568 1.02697 0.27959
 C856 C 0.23007 1.03652 0.27092
 C857 C 0.22974 1.03376 0.25718
 C858 C 0.23501 1.02175 0.25223
 H859 H 0.25803 1.00790 0.22050
 H860 H 0.26742 1.02887 0.21191
 H861 H 0.27827 1.04059 0.25192
 H862 H 0.26880 1.01958 0.26044
 H863 H 0.24187 0.97990 0.23385
 H864 H 0.25029 0.95880 0.22451
 H865 H 0.28229 0.99113 0.24473
 H866 H 0.26090 0.97955 0.26790
 H867 H 0.25203 0.95859 0.27714
 H868 H 0.21179 0.97072 0.26625
 H869 H 0.22073 0.99165 0.25710
 H870 H 0.24540 1.00786 0.28147
 H871 H 0.23619 1.02886 0.29020
 H872 H 0.22528 1.04082 0.25029
 H873 H 0.23455 1.01978 0.24163
 H874 H 0.29077 0.97006 0.23547
 C875 C 0.24746 0.49949 0.75674
 C876 C 0.25676 0.49961 0.74675
 C877 C 0.26148 0.51234 0.74061
 C878 C 0.26270 0.48702 0.74143
 C879 C 0.24158 0.48676 0.76178
 C880 C 0.24258 0.51209 0.76303
 C881 C 0.25230 0.52158 0.73523
 C882 C 0.25688 0.53359 0.72965
 C883 C 0.27072 0.53651 0.72920
 C884 C 0.27987 0.52712 0.73438
 C885 C 0.27529 0.51514 0.73998
 C886 C 0.26218 0.48436 0.72772
 C887 C 0.26759 0.47250 0.72261
 C888 C 0.27374 0.46311 0.73109
 C889 C 0.27448 0.46593 0.74480
 C890 C 0.26906 0.47780 0.74992
 C891 C 0.24209 0.48381 0.77542
 C892 C 0.23672 0.47181 0.78027
 C893 C 0.23064 0.46257 0.77157
 C894 C 0.22993 0.46566 0.75792
 C895 C 0.23530 0.47767 0.75308
 C896 C 0.25163 0.52144 0.76845
 C897 C 0.24692 0.53340 0.77401
 C898 C 0.23304 0.53617 0.77441
 C899 C 0.22401 0.52664 0.76925
 C900 C 0.22873 0.51471 0.76366
 H901 H 0.24161 0.51947 0.73534
 H902 H 0.24960 0.54052 0.72553
 H903 H 0.29058 0.52913 0.73430
 H904 H 0.28252 0.50811 0.74403
 H905 H 0.25745 0.49142 0.72100
 H906 H 0.26707 0.47073 0.71198
 H907 H 0.26977 0.47978 0.76050
 H908 H 0.24677 0.49075 0.78231
 H909 H 0.23721 0.46982 0.79086
 H910 H 0.22538 0.45872 0.75095
 H911 H 0.23460 0.47987 0.74254
 H912 H 0.26235 0.51948 0.76833
 H913 H 0.25411 0.54044 0.77811
 H914 H 0.21328 0.52853 0.76928
 H915 H 0.22158 0.50761 0.75957
 H916 H 0.27908 0.45886 0.75160
 C917 C 0.74676 0.00064 0.24334
 C918 C 0.75647 0.00068 0.25295
 C919 C 0.76132 -0.01196 0.25916
 C920 C 0.76267 0.01336 0.25776
 C921 C 0.74054 0.01328 0.23848
 C922 C 0.74186 -0.01205 0.23726
 C923 C 0.75225 -0.02109 0.26492
 C924 C 0.75690 -0.03303 0.27057
 C925 C 0.77074 -0.03599 0.27072
 C926 C 0.77981 -0.02669 0.26518
 C927 C 0.77514 -0.01478 0.25950
 C928 C 0.76299 0.01618 0.27144
 C929 C 0.76857 0.02817 0.27607
 C930 C 0.77400 0.03756 0.26710
 C931 C 0.77390 0.03460 0.25341
 C932 C 0.76836 0.02257 0.24879
 C933 C 0.74020 0.01603 0.22478
 C934 C 0.73453 0.02795 0.22010
 C935 C 0.72901 0.03732 0.22903
 C936 C 0.72916 0.03444 0.24274
 C937 C 0.73479 0.02249 0.24741
 C938 C 0.75088 -0.02127 0.23160
 C939 C 0.74617 -0.03327 0.22612
 C940 C 0.73232 -0.03621 0.22605
 C941 C 0.72330 -0.02682 0.23148
 C942 C 0.72802 -0.01485 0.23699
 H943 H 0.74156 -0.01896 0.26504
 H944 H 0.74969 -0.03987 0.27497
 H945 H 0.79050 -0.02874 0.26502
 H946 H 0.78230 -0.00785 0.25517
 H947 H 0.75870 0.00919 0.27853
 H948 H 0.76838 0.03021 0.28667
 H949 H 0.76850 0.02045 0.23820
 H950 H 0.74453 0.00903 0.21772
 H951 H 0.73468 0.02994 0.20950
 H952 H 0.72477 0.04135 0.24984
 H953 H 0.73467 0.02042 0.25800
 H954 H 0.76157 -0.01917 0.23143
 H955 H 0.75334 -0.04019 0.22179
 H956 H 0.71260 -0.02885 0.23170
 H957 H 0.72090 -0.00784 0.24127
 H958 H 0.77822 0.04152 0.24628
 C959 C 0.74695 0.49998 0.74236
 C960 C 0.75653 0.49991 0.75208
 C961 C 0.76130 0.48720 0.75821
 C962 C 0.76268 0.51253 0.75712
 C963 C 0.74093 0.51268 0.73743
 C964 C 0.74194 0.48735 0.73623
 C965 C 0.75218 0.47804 0.76384
 C966 C 0.75678 0.46604 0.76939
 C967 C 0.77061 0.46305 0.76957
 C968 C 0.77973 0.47238 0.76417
 C969 C 0.77511 0.48435 0.75858
 C970 C 0.76275 0.51520 0.77084
 C971 C 0.76829 0.52712 0.77570
 C972 C 0.77395 0.53657 0.76693
 C973 C 0.77408 0.53375 0.75320
 C974 C 0.76858 0.52181 0.74835
 C975 C 0.74091 0.51548 0.72374
 C976 C 0.73543 0.52744 0.71898
 C977 C 0.72977 0.53681 0.72783
 C978 C 0.72960 0.53388 0.74153
 C979 C 0.73506 0.52189 0.74627
 C980 C 0.75088 0.47802 0.73061
 C981 C 0.74605 0.46609 0.72508
 C982 C 0.73217 0.46333 0.72493
 C983 C 0.72324 0.47282 0.73033
 C984 C 0.72808 0.48472 0.73589
 H985 H 0.74150 0.48020 0.76392
 H986 H 0.74954 0.45917 0.77369
 H987 H 0.79042 0.47031 0.76404
 H988 H 0.78231 0.49131 0.75435
 H989 H 0.75830 0.50815 0.77777
 H990 H 0.76791 0.52905 0.78630
 H991 H 0.76890 0.51979 0.73775
 H992 H 0.74535 0.50847 0.71675
 H993 H 0.73582 0.52947 0.70839
 H994 H 0.72510 0.54079 0.74856
 H995 H 0.73470 0.51978 0.75685
 H996 H 0.76160 0.47999 0.73051
 H997 H 0.75316 0.45908 0.72079
 H998 H 0.71251 0.47093 0.73049
 H999 H 0.72102 0.49181 0.74014
 H1000 H 0.77858 0.54072 0.74622
 C1001 C 0.24536 0.50014 0.24691
 C1002 C 0.25512 0.50009 0.25644
 C1003 C 0.25976 0.48743 0.26277
 C1004 C 0.26163 0.51270 0.26103
 C1005 C 0.23934 0.51285 0.24197
 C1006 C 0.24021 0.48752 0.24089
 C1007 C 0.25054 0.47850 0.26860
 C1008 C 0.25501 0.46658 0.27443
 C1009 C 0.26880 0.46345 0.27469
 C1010 C 0.27801 0.47253 0.26904
 C1011 C 0.27353 0.48442 0.26318
 C1012 C 0.26211 0.51571 0.27467
 C1013 C 0.26797 0.52765 0.27908
 C1014 C 0.27353 0.53679 0.26993
 C1015 C 0.27327 0.53362 0.25628
 C1016 C 0.26745 0.52165 0.25189
 C1017 C 0.23888 0.51542 0.22824
 C1018 C 0.23320 0.52728 0.22346
 C1019 C 0.22779 0.53678 0.23232
 C1020 C 0.22813 0.53412 0.24607
 C1021 C 0.23378 0.52222 0.25085
 C1022 C 0.24905 0.47812 0.23523
 C1023 C 0.24407 0.46636 0.22947
 C1024 C 0.23015 0.46386 0.22912
 C1025 C 0.22133 0.47337 0.23467
 C1026 C 0.22632 0.48509 0.24046
 H1027 H 0.23989 0.48078 0.26866
 H1028 H 0.24770 0.45990 0.27891
 H1029 H 0.28868 0.47034 0.26895
 H1030 H 0.28081 0.49120 0.25878
 H1031 H 0.25773 0.50891 0.28189
 H1032 H 0.26791 0.52986 0.28964
 H1033 H 0.26746 0.51937 0.24134
 H1034 H 0.24308 0.50830 0.22123
 H1035 H 0.23322 0.52911 0.21283
 H1036 H 0.22384 0.54114 0.25312
 H1037 H 0.23376 0.52029 0.26146
 H1038 H 0.25979 0.47995 0.23519
 H1039 H 0.25110 0.45934 0.22507
 H1040 H 0.21057 0.47166 0.23468
 H1041 H 0.21933 0.49224 0.24472
 H1042 H 0.27769 0.54034 0.24902
 C1043 C 0.74629 0.99937 0.75122
 C1044 C 0.75603 0.99923 0.74164
 C1045 C 0.76102 1.01178 0.73535
 C1046 C 0.76229 0.98652 0.73707
 C1047 C 0.74035 0.98676 0.75652
 C1048 C 0.74121 1.01211 0.75705
 C1049 C 0.75210 1.02097 0.72951
 C1050 C 0.75692 1.03289 0.72396
 C1051 C 0.77077 1.03577 0.72399
 C1052 C 0.77971 1.02638 0.72953
 C1053 C 0.77488 1.01449 0.73512
 C1054 C 0.76239 0.98332 0.72346
 C1055 C 0.76802 0.97128 0.71906
 C1056 C 0.77375 0.96224 0.72818
 C1057 C 0.77392 0.96562 0.74178
 C1058 C 0.76830 0.97768 0.74617
 C1059 C 0.74028 0.98440 0.77029
 C1060 C 0.73488 0.97253 0.77541
 C1061 C 0.72934 0.96282 0.76686
 C1062 C 0.72925 0.96530 0.75306
 C1063 C 0.73463 0.97719 0.74795
 C1064 C 0.75008 1.02153 0.76264
 C1065 C 0.74515 1.03345 0.76812
 C1066 C 0.73125 1.03609 0.76827
 C1067 C 0.72240 1.02654 0.76284
 C1068 C 0.72734 1.01466 0.75732
 H1069 H 0.74139 1.01892 0.72930
 H1070 H 0.74982 1.03982 0.71954
 H1071 H 0.79042 1.02837 0.72981
 H1072 H 0.78193 1.00751 0.73952
 H1073 H 0.75785 0.99004 0.71628
 H1074 H 0.76764 0.96891 0.70854
 H1075 H 0.76861 0.98011 0.75668
 H1076 H 0.74461 0.99167 0.77706
 H1077 H 0.73525 0.97087 0.78606
 H1078 H 0.72485 0.95812 0.74624
 H1079 H 0.73433 0.97894 0.73731
 H1080 H 0.76080 1.01962 0.76281
 H1081 H 0.75220 1.04050 0.77243
 H1082 H 0.71166 1.02834 0.76268
 H1083 H 0.72033 1.00749 0.75311
 H1084 H 0.77849 0.95898 0.74901
 C1085 C 0.74530 0.49996 0.25164
 C1086 C 0.75504 0.49991 0.24212
 C1087 C 0.76047 0.51244 0.23618
 C1088 C 0.76071 0.48711 0.23722
 C1089 C 0.73957 0.48723 0.25667
 C1090 C 0.74004 0.51254 0.25756
 C1091 C 0.75187 0.52203 0.23050
 C1092 C 0.75710 0.53392 0.22523
 C1093 C 0.77104 0.53637 0.22540
 C1094 C 0.77964 0.52661 0.23084
 C1095 C 0.77440 0.51475 0.23614
 C1096 C 0.75728 0.48241 0.22451
 C1097 C 0.76236 0.47019 0.21993
 C1098 C 0.77111 0.46258 0.22794
 C1099 C 0.77462 0.46742 0.24063
 C1100 C 0.76941 0.47957 0.24526
 C1101 C 0.74342 0.48236 0.26918
 C1102 C 0.73829 0.47018 0.27386
 C1103 C 0.72906 0.46280 0.26617
 C1104 C 0.72512 0.46781 0.25368
 C1105 C 0.73041 0.47990 0.24893
 C1106 C 0.74875 0.52193 0.26341
 C1107 C 0.74369 0.53387 0.26871
 C1108 C 0.72981 0.53660 0.26835
 C1109 C 0.72110 0.52705 0.26269
 C1110 C 0.72616 0.51512 0.25739
 H1111 H 0.74111 0.52030 0.23015
 H1112 H 0.75025 0.54114 0.22088
 H1113 H 0.79040 0.52826 0.23123
 H1114 H 0.78121 0.50746 0.24044
 H1115 H 0.75054 0.48815 0.21823
 H1116 H 0.75959 0.46675 0.21007
 H1117 H 0.77213 0.48313 0.25510
 H1118 H 0.75052 0.48791 0.27523
 H1119 H 0.74141 0.46661 0.28357
 H1120 H 0.71810 0.46228 0.24752
 H1121 H 0.72736 0.48358 0.23923
 H1122 H 0.75946 0.52000 0.26388
 H1123 H 0.75063 0.54091 0.27322
 H1124 H 0.71038 0.52891 0.26214
 H1125 H 0.71927 0.50799 0.25293
 H1126 H 0.78125 0.46170 0.24703
 C1127 C 0.24675 -0.00063 0.74719
 C1128 C 0.25636 -0.00058 0.75688
 C1129 C 0.26140 -0.01319 0.76299
 C1130 C 0.26239 0.01214 0.76177
 C1131 C 0.24052 0.01202 0.74236
 C1132 C 0.24207 -0.01328 0.74087
 C1133 C 0.25249 -0.02267 0.76843
 C1134 C 0.25739 -0.03453 0.77404
 C1135 C 0.27130 -0.03705 0.77447
 C1136 C 0.28020 -0.02743 0.76922
 C1137 C 0.27529 -0.01561 0.76357
 C1138 C 0.26229 0.01506 0.77543
 C1139 C 0.26775 0.02707 0.78013
 C1140 C 0.27347 0.03636 0.77123
 C1141 C 0.27379 0.03329 0.75757
 C1142 C 0.26837 0.02125 0.75289
 C1143 C 0.24047 0.01493 0.72869
 C1144 C 0.23479 0.02685 0.72402
 C1145 C 0.22895 0.03606 0.73293
 C1146 C 0.22885 0.03303 0.74661
 C1147 C 0.23452 0.02109 0.75127
 C1148 C 0.25127 -0.02239 0.73531
 C1149 C 0.24675 -0.03429 0.72948
 C1150 C 0.23292 -0.03723 0.72894
 C1151 C 0.22373 -0.02797 0.73431
 C1152 C 0.22826 -0.01610 0.74018
 H1153 H 0.24174 -0.02086 0.76836
 H1154 H 0.25031 -0.04164 0.77821
 H1155 H 0.29095 -0.02914 0.76928
 H1156 H 0.28233 -0.00841 0.75947
 H1157 H 0.25777 0.00812 0.78244
 H1158 H 0.26725 0.02922 0.79069
 H1159 H 0.26882 0.01903 0.74233
 H1160 H 0.24502 0.00806 0.72165
 H1161 H 0.23517 0.02895 0.71345
 H1162 H 0.22423 0.03980 0.75370
 H1163 H 0.23421 0.01890 0.76184
 H1164 H 0.26196 -0.02026 0.73546
 H1165 H 0.25406 -0.04111 0.72522
 H1166 H 0.21302 -0.03001 0.73417
 H1167 H 0.22099 -0.00918 0.74435
 H1168 H 0.27837 0.04014 0.75052
 C1169 C 0.25500 0.24364 0.99925
 C1170 C 0.24541 0.25341 0.99931
 C1171 C 0.24035 0.25933 1.01194
 C1172 C 0.23944 0.25864 0.98677
 C1173 C 0.26106 0.23865 0.98666
 C1174 C 0.25996 0.23745 1.01178
 C1175 C 0.22649 0.25938 1.01459
 C1176 C 0.22158 0.26470 1.02651
 C1177 C 0.23044 0.27015 1.03599
 C1178 C 0.24432 0.27027 1.03322
 C1179 C 0.24921 0.26498 1.02127
 C1180 C 0.23351 0.24995 0.97746
 C1181 C 0.22805 0.25500 0.96565
 C1182 C 0.22826 0.26886 0.96302
 C1183 C 0.23398 0.27754 0.97250
 C1184 C 0.23948 0.27248 0.98427
 C1185 C 0.26710 0.24750 0.97756
 C1186 C 0.27268 0.24265 0.96572
 C1187 C 0.27246 0.22884 0.96283
 C1188 C 0.26660 0.22000 0.97208
 C1189 C 0.26100 0.22486 0.98389
 C1190 C 0.27379 0.23734 1.01453
 C1191 C 0.27859 0.23182 1.02640
 C1192 C 0.26963 0.22622 1.03572
 C1193 C 0.25579 0.22609 1.03281
 C1194 C 0.25101 0.23158 1.02091
 H1195 H 0.21949 0.25510 1.00750
 H1196 H 0.21086 0.26434 1.02840
 H1197 H 0.25136 0.27461 1.04022
 H1198 H 0.25992 0.26529 1.01929
 H1199 H 0.23310 0.23927 0.97935
 H1200 H 0.22349 0.24809 0.95866
 H1201 H 0.24395 0.27935 0.99136
 H1202 H 0.26752 0.25815 0.97965
 H1203 H 0.27733 0.24967 0.95889
 H1204 H 0.26614 0.20934 0.97008
 H1205 H 0.25643 0.21787 0.99081
 H1206 H 0.28086 0.24178 1.00759
 H1207 H 0.28928 0.23220 1.02841
 H1208 H 0.24867 0.22163 1.03968
 H1209 H 0.24032 0.23129 1.01883
 H1210 H 0.23442 0.28824 0.97070
 C1211 C 0.25278 0.74339 0.50034
 C1212 C 0.24302 0.75300 0.50034
 C1213 C 0.23691 0.75801 0.51292
 C1214 C 0.23801 0.75902 0.48775
 C1215 C 0.25773 0.73722 0.48778
 C1216 C 0.25902 0.73859 0.51291
 C1217 C 0.23123 0.74912 0.52220
 C1218 C 0.22577 0.75394 0.53411
 C1219 C 0.22572 0.76777 0.53687
 C1220 C 0.23116 0.77666 0.52742
 C1221 C 0.23666 0.77183 0.51555
 C1222 C 0.22417 0.75907 0.48502
 C1223 C 0.21935 0.76450 0.47313
 C1224 C 0.22827 0.77007 0.46377
 C1225 C 0.24212 0.77023 0.46663
 C1226 C 0.24693 0.76483 0.47855
 C1227 C 0.27156 0.73708 0.48499
 C1228 C 0.27634 0.73150 0.47314
 C1229 C 0.26737 0.72587 0.46386
 C1230 C 0.25353 0.72579 0.46679
 C1231 C 0.24877 0.73134 0.47868
 C1232 C 0.26482 0.74764 0.52196
 C1233 C 0.27046 0.74301 0.53385
 C1234 C 0.27055 0.72923 0.53681
 C1235 C 0.26497 0.72018 0.52760
 C1236 C 0.25930 0.72482 0.51575
 H1237 H 0.23105 0.73844 0.52023
 H1238 H 0.22145 0.74687 0.54109
 H1239 H 0.23139 0.78735 0.52932
 H1240 H 0.24095 0.77886 0.50849
 H1241 H 0.21713 0.75468 0.49202
 H1242 H 0.20865 0.76411 0.47115
 H1243 H 0.25763 0.76516 0.48061
 H1244 H 0.27864 0.74151 0.49191
 H1245 H 0.28704 0.73184 0.47111
 H1246 H 0.24641 0.72132 0.45995
 H1247 H 0.23808 0.73106 0.48079
 H1248 H 0.26498 0.75828 0.51981
 H1249 H 0.27489 0.75019 0.54064
 H1250 H 0.26478 0.70952 0.52966
 H1251 H 0.25492 0.71768 0.50886
 H1252 H 0.24921 0.77467 0.45973
 C1253 C 0.24240 0.74392 0.00096
 C1254 C 0.25225 0.75345 0.00087
 C1255 C 0.25821 0.75844 -0.01178
 C1256 C 0.25753 0.75941 0.01339
 C1257 C 0.23760 0.73773 0.01357
 C1258 C 0.23594 0.73922 -0.01154
 C1259 C 0.26368 0.74953 -0.02117
 C1260 C 0.26908 0.75435 -0.03311
 C1261 C 0.26926 0.76819 -0.03580
 C1262 C 0.26400 0.77709 -0.02626
 C1263 C 0.25857 0.77226 -0.01436
 C1264 C 0.27143 0.75950 0.01581
 C1265 C 0.27652 0.76495 0.02759
 C1266 C 0.26781 0.77049 0.03716
 C1267 C 0.25390 0.77060 0.03461
 C1268 C 0.24882 0.76518 0.02280
 C1269 C 0.22382 0.73774 0.01660
 C1270 C 0.21918 0.73219 0.02852
 C1271 C 0.22824 0.72643 0.03762
 C1272 C 0.24203 0.72621 0.03445
 C1273 C 0.24665 0.73174 0.02250
 C1274 C 0.23012 0.74836 -0.02048
 C1275 C 0.22448 0.74385 -0.03242
 C1276 C 0.22440 0.73011 -0.03556
 C1277 C 0.22991 0.72096 -0.02641
 C1278 C 0.23558 0.72547 -0.01450
 H1279 H 0.26377 0.73884 -0.01924
 H1280 H 0.27326 0.74727 -0.04016
 H1281 H 0.26387 0.78779 -0.02810
 H1282 H 0.25443 0.77930 -0.00723
 H1283 H 0.27832 0.75517 0.00864
 H1284 H 0.28727 0.76460 0.02931
 H1285 H 0.23808 0.76551 0.02098
 H1286 H 0.21667 0.74228 0.00982
 H1287 H 0.20853 0.73263 0.03074
 H1288 H 0.24922 0.72164 0.04115
 H1289 H 0.25729 0.73136 0.02021
 H1290 H 0.23001 0.75898 -0.01823
 H1291 H 0.22009 0.75111 -0.03916
 H1292 H 0.23010 0.71033 -0.02860
 H1293 H 0.23997 0.71826 -0.00771
 H1294 H 0.24696 0.77502 0.04167
 C1295 C 0.24509 0.24268 0.50166
 C1296 C 0.25476 0.25239 0.50163
 C1297 C 0.26080 0.25740 0.48903
 C1298 C 0.25976 0.25854 0.51418
 C1299 C 0.24008 0.23660 0.51425
 C1300 C 0.23902 0.23766 0.48908
 C1301 C 0.26681 0.24856 0.47991
 C1302 C 0.27223 0.25339 0.46798
 C1303 C 0.27182 0.26717 0.46500
 C1304 C 0.26606 0.27601 0.47431
 C1305 C 0.26065 0.27118 0.48622
 C1306 C 0.27362 0.25880 0.51681
 C1307 C 0.27847 0.26450 0.52858
 C1308 C 0.26956 0.27014 0.53791
 C1309 C 0.25569 0.27003 0.53517
 C1310 C 0.25084 0.26436 0.52337
 C1311 C 0.22622 0.23639 0.51692
 C1312 C 0.22138 0.23091 0.52880
 C1313 C 0.23029 0.22542 0.53820
 C1314 C 0.24416 0.22543 0.53539
 C1315 C 0.24900 0.23089 0.52349
 C1316 C 0.23305 0.24652 0.47996
 C1317 C 0.22767 0.24171 0.46802
 C1318 C 0.22808 0.22793 0.46501
 C1319 C 0.23379 0.21907 0.47432
 C1320 C 0.23915 0.22388 0.48625
 H1321 H 0.26723 0.23791 0.48200
 H1322 H 0.27654 0.24632 0.46099
 H1323 H 0.26581 0.28670 0.47242
 H1324 H 0.25617 0.27817 0.49319
 H1325 H 0.28066 0.25441 0.50983
 H1326 H 0.28919 0.26429 0.53047
 H1327 H 0.24013 0.26453 0.52139
 H1328 H 0.21918 0.24071 0.50991
 H1329 H 0.21066 0.23118 0.53073
 H1330 H 0.25125 0.22108 0.54233
 H1331 H 0.25970 0.23068 0.52148
 H1332 H 0.23264 0.25716 0.48206
 H1333 H 0.22341 0.24880 0.46103
 H1334 H 0.23403 0.20838 0.47240
 H1335 H 0.24360 0.21688 0.49322
 H1336 H 0.24860 0.27450 0.54205
 C1337 C 0.75317 0.74422 0.99928
 C1338 C 0.74348 0.75391 0.99923
 C1339 C 0.73734 0.75892 1.01180
 C1340 C 0.73858 0.76002 0.98662
 C1341 C 0.75803 0.73792 0.98674
 C1342 C 0.75942 0.73947 1.01188
 C1343 C 0.73163 0.75001 1.02106
 C1344 C 0.72616 0.75481 1.03297
 C1345 C 0.72615 0.76863 1.03578
 C1346 C 0.73161 0.77754 1.02635
 C1347 C 0.73712 0.77273 1.01447
 C1348 C 0.72475 0.76036 0.98389
 C1349 C 0.72003 0.76591 0.97200
 C1350 C 0.72906 0.77131 0.96264
 C1351 C 0.74291 0.77118 0.96551
 C1352 C 0.74761 0.76566 0.97743
 C1353 C 0.77186 0.73754 0.98396
 C1354 C 0.77655 0.73183 0.97213
 C1355 C 0.76750 0.72631 0.96287
 C1356 C 0.75365 0.72649 0.96578
 C1357 C 0.74897 0.73217 0.97765
 C1358 C 0.76526 0.74855 1.02088
 C1359 C 0.77093 0.74398 1.03277
 C1360 C 0.77102 0.73022 1.03582
 C1361 C 0.76540 0.72113 1.02667
 C1362 C 0.75969 0.72571 1.01480
 H1363 H 0.73143 0.73934 1.01905
 H1364 H 0.72181 0.74773 1.03992
 H1365 H 0.73187 0.78822 1.02828
 H1366 H 0.74143 0.77977 1.00744
 H1367 H 0.71761 0.75611 0.99088
 H1368 H 0.70932 0.76575 0.97003
 H1369 H 0.75831 0.76579 0.97948
 H1370 H 0.77901 0.74188 0.99086
 H1371 H 0.78725 0.73196 0.97011
 H1372 H 0.74646 0.72211 0.95896
 H1373 H 0.73828 0.73208 0.97974
 H1374 H 0.76542 0.75919 1.01867
 H1375 H 0.77539 0.75120 1.03951
 H1376 H 0.76519 0.71048 1.02879
 H1377 H 0.75528 0.71854 1.00797
 H1378 H 0.75009 0.77549 0.95862
 C1379 C 0.75572 0.24444 0.49872
 C1380 C 0.74613 0.25424 0.49873
 C1381 C 0.74001 0.25918 0.51133
 C1382 C 0.74130 0.26048 0.48617
 C1383 C 0.76034 0.23803 0.48615
 C1384 C 0.76201 0.23966 0.51128
 C1385 C 0.73421 0.25023 0.52049
 C1386 C 0.72861 0.25498 0.53236
 C1387 C 0.72857 0.26878 0.53523
 C1388 C 0.73416 0.27773 0.52592
 C1389 C 0.73980 0.27297 0.51407
 C1390 C 0.72746 0.26115 0.48353
 C1391 C 0.72279 0.26695 0.47175
 C1392 C 0.73187 0.27227 0.46239
 C1393 C 0.74574 0.27175 0.46514
 C1394 C 0.75040 0.26600 0.47695
 C1395 C 0.77412 0.23738 0.48321
 C1396 C 0.77856 0.23161 0.47130
 C1397 C 0.76928 0.22631 0.46213
 C1398 C 0.75549 0.22672 0.46523
 C1399 C 0.75107 0.23244 0.47717
 C1400 C 0.76788 0.24875 0.52026
 C1401 C 0.77350 0.24418 0.53218
 C1402 C 0.77351 0.23042 0.53526
 C1403 C 0.76789 0.22134 0.52611
 C1404 C 0.76224 0.22591 0.51422
 H1405 H 0.73400 0.23957 0.51843
 H1406 H 0.72416 0.24787 0.53923
 H1407 H 0.73440 0.28841 0.52790
 H1408 H 0.74419 0.28004 0.50712
 H1409 H 0.72027 0.25701 0.49053
 H1410 H 0.71206 0.26708 0.46986
 H1411 H 0.76111 0.26587 0.47893
 H1412 H 0.78144 0.24157 0.49004
 H1413 H 0.78923 0.23156 0.46915
 H1414 H 0.74812 0.22249 0.45849
 H1415 H 0.74040 0.23254 0.47939
 H1416 H 0.76810 0.25937 0.51803
 H1417 H 0.77797 0.25140 0.53891
 H1418 H 0.76763 0.21070 0.52826
 H1419 H 0.75781 0.21874 0.50739
 H1420 H 0.75296 0.27597 0.45823
 C1421 C 0.74515 0.24359 -0.00054
 C1422 C 0.75471 0.25340 -0.00049
 C1423 C 0.75982 0.25947 -0.01303
 C1424 C 0.76055 0.25859 0.01212
 C1425 C 0.73916 0.23843 0.01201
 C1426 C 0.74019 0.23753 -0.01314
 C1427 C 0.77369 0.25961 -0.01561
 C1428 C 0.77865 0.26516 -0.02740
 C1429 C 0.76983 0.27077 -0.03681
 C1430 C 0.75594 0.27081 -0.03411
 C1431 C 0.75099 0.26528 -0.02228
 C1432 C 0.76665 0.24992 0.02132
 C1433 C 0.77189 0.25494 0.03325
 C1434 C 0.77121 0.26873 0.03613
 C1435 C 0.76533 0.27740 0.02675
 C1436 C 0.76011 0.27238 0.01484
 C1437 C 0.73297 0.24713 0.02115
 C1438 C 0.72769 0.24218 0.03308
 C1439 C 0.72840 0.22841 0.03605
 C1440 C 0.73433 0.21970 0.02673
 C1441 C 0.73961 0.22466 0.01480
 C1442 C 0.72635 0.23740 -0.01586
 C1443 C 0.72155 0.23196 -0.02777
 C1444 C 0.73050 0.22646 -0.03715
 C1445 C 0.74435 0.22639 -0.03428
 C1446 C 0.74914 0.23180 -0.02235
 H1447 H 0.78066 0.25521 -0.00857
 H1448 H 0.78938 0.26485 -0.02926
 H1449 H 0.74892 0.27527 -0.04106
 H1450 H 0.74027 0.26553 -0.02034
 H1451 H 0.76729 0.23927 0.01930
 H1452 H 0.77629 0.24800 0.04030
 H1453 H 0.75556 0.27924 0.00780
 H1454 H 0.73233 0.25777 0.01907
 H1455 H 0.72326 0.24916 0.04009
 H1456 H 0.73481 0.20901 0.02861
 H1457 H 0.74423 0.21777 0.00782
 H1458 H 0.71929 0.24173 -0.00886
 H1459 H 0.71085 0.23229 -0.02974
 H1460 H 0.75146 0.22201 -0.04120
 H1461 H 0.75984 0.23154 -0.02030
 H1462 H 0.76488 0.28809 0.02857
 C1463 C 0.74300 0.74470 0.50042
 C1464 C 0.75264 0.75445 0.50043
 C1465 C 0.75777 0.76045 0.48786
 C1466 C 0.75850 0.75965 0.51303
 C1467 C 0.73690 0.73970 0.51300
 C1468 C 0.73811 0.73853 0.48785
 C1469 C 0.77164 0.76056 0.48528
 C1470 C 0.77661 0.76598 0.47341
 C1471 C 0.76779 0.77147 0.46393
 C1472 C 0.75390 0.77157 0.46665
 C1473 C 0.74895 0.76617 0.47854
 C1474 C 0.76444 0.75095 0.52232
 C1475 C 0.76972 0.75597 0.53423
 C1476 C 0.76925 0.76979 0.53701
 C1477 C 0.76352 0.77848 0.52756
 C1478 C 0.75825 0.77346 0.51567
 C1479 C 0.73076 0.74854 0.52204
 C1480 C 0.72538 0.74374 0.53400
 C1481 C 0.72594 0.72999 0.53708
 C1482 C 0.73182 0.72114 0.52785
 C1483 C 0.73719 0.72595 0.51591
 C1484 C 0.72429 0.73840 0.48503
 C1485 C 0.71956 0.73287 0.47313
 C1486 C 0.72856 0.72726 0.46386
 C1487 C 0.74239 0.72718 0.46683
 C1488 C 0.74711 0.73269 0.47875
 H1489 H 0.77862 0.75623 0.49236
 H1490 H 0.78734 0.76564 0.47156
 H1491 H 0.74689 0.77595 0.45966
 H1492 H 0.73823 0.76646 0.48048
 H1493 H 0.76493 0.74028 0.52037
 H1494 H 0.77400 0.74901 0.54134
 H1495 H 0.75383 0.78034 0.50857
 H1496 H 0.73024 0.75917 0.51988
 H1497 H 0.72098 0.75081 0.54093
 H1498 H 0.73218 0.71047 0.52983
 H1499 H 0.74177 0.71895 0.50900
 H1500 H 0.71719 0.74282 0.49194
 H1501 H 0.70887 0.73321 0.47108
 H1502 H 0.74954 0.72272 0.46001
 H1503 H 0.75779 0.73243 0.48088
 H1504 H 0.76323 0.78919 0.52931
 C1505 C 1.00154 0.25634 0.24544
 C1506 C 1.00147 0.24676 0.25513
 C1507 C 1.01412 0.24057 0.26004
 C1508 C 0.98875 0.24192 0.26127
 C1509 C 0.98887 0.26140 0.23943
 C1510 C 1.01429 0.26222 0.24031
 C1511 C 1.02320 0.23447 0.25119
 C1512 C 1.03517 0.22888 0.25592
 C1513 C 1.03819 0.22915 0.26960
 C1514 C 1.02895 0.23505 0.27845
 C1515 C 1.01701 0.24066 0.27371
 C1516 C 0.98590 0.22815 0.26151
 C1517 C 0.97391 0.22346 0.26709
 C1518 C 0.96456 0.23245 0.27262
 C1519 C 0.96753 0.24625 0.27255
 C1520 C 0.97955 0.25093 0.26700
 C1521 C 0.98625 0.27522 0.23926
 C1522 C 0.97432 0.28010 0.23375
 C1523 C 0.96483 0.27125 0.22821
 C1524 C 0.96758 0.25742 0.22821
 C1525 C 0.97953 0.25255 0.23370
 C1526 C 1.02377 0.26794 0.24899
 C1527 C 1.03576 0.27330 0.24402
 C1528 C 1.03843 0.27321 0.23026
 C1529 C 1.02880 0.26767 0.22159
 C1530 C 1.01684 0.26228 0.22657
 H1531 H 1.02101 0.23404 0.24064
 H1532 H 1.04199 0.22420 0.24891
 H1533 H 1.03106 0.23553 0.28902
 H1534 H 1.01011 0.24530 0.28068
 H1535 H 0.99288 0.22104 0.25717
 H1536 H 0.97185 0.21279 0.26686
 H1537 H 0.98170 0.26158 0.26717
 H1538 H 0.99336 0.28220 0.24359
 H1539 H 0.97243 0.29079 0.23401
 H1540 H 0.96057 0.25039 0.22381
 H1541 H 0.98151 0.24187 0.23347
 H1542 H 1.02186 0.26826 0.25961
 H1543 H 1.04287 0.27770 0.25093
 H1544 H 1.03061 0.26732 0.21096
 H1545 H 1.00964 0.25796 0.21970
 H1546 H 0.96063 0.25340 0.27694
 C1547 C 0.50137 0.25400 0.74566
 C1548 C 0.50159 0.24352 0.75426
 C1549 C 0.51445 0.23814 0.75933
 C1550 C 0.48905 0.23769 0.75970
 C1551 C 0.48859 0.25925 0.74016
 C1552 C 0.51401 0.25993 0.74063
 C1553 C 0.52038 0.22690 0.75336
 C1554 C 0.53253 0.22184 0.75822
 C1555 C 0.53899 0.22803 0.76907
 C1556 C 0.53305 0.23941 0.77491
 C1557 C 0.52086 0.24440 0.77009
 C1558 C 0.48552 0.22438 0.75683
 C1559 C 0.47350 0.21900 0.76173
 C1560 C 0.46486 0.22682 0.76967
 C1561 C 0.46856 0.24010 0.77267
 C1562 C 0.48054 0.24548 0.76772
 C1563 C 0.48460 0.27247 0.74280
 C1564 C 0.47251 0.27741 0.73766
 C1565 C 0.46423 0.26924 0.72969
 C1566 C 0.46831 0.25599 0.72705
 C1567 C 0.48037 0.25105 0.73224
 C1568 C 0.51944 0.27142 0.74661
 C1569 C 0.53151 0.27687 0.74191
 C1570 C 0.53838 0.27081 0.73123
 C1571 C 0.53291 0.25922 0.72535
 C1572 C 0.52080 0.25385 0.73000
 H1573 H 0.51564 0.22211 0.74489
 H1574 H 0.53696 0.21319 0.75340
 H1575 H 0.53773 0.24431 0.78335
 H1576 H 0.51640 0.25314 0.77474
 H1577 H 0.49190 0.21824 0.75058
 H1578 H 0.47085 0.20881 0.75908
 H1579 H 0.48321 0.25574 0.77014
 H1580 H 0.49072 0.27892 0.74900
 H1581 H 0.46956 0.28757 0.74008
 H1582 H 0.46228 0.24950 0.72079
 H1583 H 0.48337 0.24085 0.73000
 H1584 H 0.51441 0.27609 0.75499
 H1585 H 0.53558 0.28569 0.74675
 H1586 H 0.53791 0.25442 0.71704
 H1587 H 0.51673 0.24493 0.72534
 H1588 H 0.46226 0.24631 0.77895
 C1589 C -0.00116 0.24447 0.74566
 C1590 C -0.00121 0.25501 0.75419
 C1591 C -0.01393 0.26055 0.75951
 C1592 C 0.01150 0.26061 0.75945
 C1593 C 0.01159 0.23909 0.74028
 C1594 C -0.01383 0.23878 0.74043
 C1595 C -0.01852 0.27317 0.75540
 C1596 C -0.03051 0.27839 0.76050
 C1597 C -0.03812 0.27107 0.76983
 C1598 C -0.03350 0.25837 0.77385
 C1599 C -0.02151 0.25316 0.76874
 C1600 C 0.01642 0.27293 0.75482
 C1601 C 0.02849 0.27810 0.75978
 C1602 C 0.03588 0.27100 0.76942
 C1603 C 0.03092 0.25859 0.77396
 C1604 C 0.01883 0.25346 0.76903
 C1605 C 0.01678 0.22691 0.74495
 C1606 C 0.02891 0.22196 0.73990
 C1607 C 0.03607 0.22914 0.73013
 C1608 C 0.03083 0.24140 0.72554
 C1609 C 0.01869 0.24632 0.73057
 C1610 C -0.01823 0.22607 0.74452
 C1611 C -0.03035 0.22085 0.73973
 C1612 C -0.03828 0.22826 0.73077
 C1613 C -0.03375 0.24096 0.72662
 C1614 C -0.02163 0.24617 0.73141
 H1615 H -0.01293 0.27891 0.74811
 H1616 H -0.03391 0.28809 0.75703
 H1617 H -0.03905 0.25255 0.78113
 H1618 H -0.01807 0.24340 0.77202
 H1619 H 0.01102 0.27846 0.74725
 H1620 H 0.03216 0.28757 0.75592
 H1621 H 0.01514 0.24392 0.77268
 H1622 H 0.01156 0.22133 0.75262
 H1623 H 0.03280 0.21260 0.74380
 H1624 H 0.03603 0.24709 0.71792
 H1625 H 0.01479 0.25576 0.72690
 H1626 H -0.01244 0.22030 0.75161
 H1627 H -0.03366 0.21112 0.74325
 H1628 H -0.03951 0.24683 0.71957
 H1629 H -0.01831 0.25597 0.72811
 H1630 H 0.03629 0.25296 0.78149
 C1631 C 0.49953 0.24775 0.24503
 C1632 C 0.49956 0.25718 0.25488
 C1633 C 0.48689 0.26325 0.25990
 C1634 C 0.51226 0.26184 0.26118
 C1635 C 0.51222 0.24257 0.23914
 C1636 C 0.48679 0.24207 0.23972
 C1637 C 0.47783 0.26958 0.25121
 C1638 C 0.46580 0.27497 0.25606
 C1639 C 0.46266 0.27421 0.26970
 C1640 C 0.47191 0.26813 0.27840
 C1641 C 0.48392 0.26275 0.27355
 C1642 C 0.51522 0.27559 0.26158
 C1643 C 0.52720 0.28012 0.26730
 C1644 C 0.53642 0.27098 0.27280
 C1645 C 0.53332 0.25722 0.27260
 C1646 C 0.52130 0.25270 0.26691
 C1647 C 0.51462 0.22871 0.23885
 C1648 C 0.52662 0.22369 0.23359
 C1649 C 0.53643 0.23244 0.22843
 C1650 C 0.53389 0.24631 0.22851
 C1651 C 0.52187 0.25133 0.23374
 C1652 C 0.47734 0.23602 0.24822
 C1653 C 0.46534 0.23083 0.24310
 C1654 C 0.46261 0.23149 0.22937
 C1655 C 0.47221 0.23735 0.22087
 C1656 C 0.48420 0.24253 0.22599
 H1657 H 0.48005 0.27026 0.24066
 H1658 H 0.45886 0.27954 0.24910
 H1659 H 0.46989 0.26761 0.28899
 H1660 H 0.49084 0.25802 0.28043
 H1661 H 0.50835 0.28280 0.25725
 H1662 H 0.52937 0.29076 0.26718
 H1663 H 0.51906 0.24207 0.26697
 H1664 H 0.50729 0.22179 0.24294
 H1665 H 0.52833 0.21297 0.23379
 H1666 H 0.54115 0.25328 0.22439
 H1667 H 0.52008 0.26204 0.23360
 H1668 H 0.47925 0.23535 0.25882
 H1669 H 0.45811 0.22645 0.24992
 H1670 H 0.47051 0.23780 0.21023
 H1671 H 0.49143 0.24704 0.21926
 H1672 H 0.54011 0.24997 0.27697
 C1673 C 1.00048 0.75551 0.74568
 C1674 C 1.00027 0.74552 0.75497
 C1675 C 1.01285 0.73895 0.75958
 C1676 C 0.98747 0.74067 0.76098
 C1677 C 0.98790 0.76078 0.73966
 C1678 C 1.01330 0.76162 0.74103
 C1679 C 1.02197 0.73336 0.75043
 C1680 C 1.03388 0.72742 0.75488
 C1681 C 1.03681 0.72680 0.76856
 C1682 C 1.02752 0.73214 0.77770
 C1683 C 1.01564 0.73811 0.77325
 C1684 C 0.98451 0.72691 0.76102
 C1685 C 0.97251 0.72223 0.76660
 C1686 C 0.96326 0.73120 0.77233
 C1687 C 0.96633 0.74498 0.77243
 C1688 C 0.97836 0.74965 0.76689
 C1689 C 0.98536 0.77462 0.73969
 C1690 C 0.97349 0.77968 0.73420
 C1691 C 0.96397 0.77097 0.72850
 C1692 C 0.96666 0.75713 0.72823
 C1693 C 0.97855 0.75210 0.73369
 C1694 C 1.02262 0.76692 0.75014
 C1695 C 1.03468 0.77255 0.74565
 C1696 C 1.03758 0.77315 0.73195
 C1697 C 1.02812 0.76803 0.72285
 C1698 C 1.01610 0.76236 0.72735
 H1699 H 1.01985 0.73361 0.73985
 H1700 H 1.04072 0.72318 0.74761
 H1701 H 1.02955 0.73193 0.78829
 H1702 H 1.00871 0.74231 0.78047
 H1703 H 0.99142 0.71981 0.75656
 H1704 H 0.97038 0.71158 0.76624
 H1705 H 0.98059 0.76028 0.76723
 H1706 H 0.99248 0.78150 0.74418
 H1707 H 0.97165 0.79037 0.73464
 H1708 H 0.95963 0.75021 0.72368
 H1709 H 0.98047 0.74141 0.73326
 H1710 H 1.02053 0.76671 0.76073
 H1711 H 1.04166 0.77662 0.75288
 H1712 H 1.03012 0.76821 0.71225
 H1713 H 1.00903 0.75836 0.72016
 H1714 H 0.95952 0.75212 0.77697
 C1715 C 0.50033 0.75703 0.24687
 C1716 C 0.50035 0.74751 0.25663
 C1717 C 0.51307 0.74148 0.26160
 C1718 C 0.48766 0.74260 0.26278
 C1719 C 0.48761 0.76178 0.24066
 C1720 C 0.51302 0.76315 0.24189
 C1721 C 0.52231 0.73556 0.25279
 C1722 C 0.53427 0.73001 0.25758
 C1723 C 0.53716 0.73012 0.27129
 C1724 C 0.52777 0.73586 0.28010
 C1725 C 0.51584 0.74144 0.27530
 C1726 C 0.48497 0.72880 0.26323
 C1727 C 0.47299 0.72406 0.26879
 C1728 C 0.46348 0.73304 0.27408
 C1729 C 0.46630 0.74686 0.27383
 C1730 C 0.47831 0.75159 0.26831
 C1731 C 0.48477 0.77555 0.24019
 C1732 C 0.47278 0.78013 0.23454
 C1733 C 0.46343 0.77103 0.22917
 C1734 C 0.46641 0.75725 0.22944
 C1735 C 0.47842 0.75267 0.23506
 C1736 C 0.52225 0.76906 0.25071
 C1737 C 0.53425 0.77457 0.24593
 C1738 C 0.53718 0.77443 0.23222
 C1739 C 0.52778 0.76875 0.22340
 C1740 C 0.51580 0.76321 0.22819
 H1741 H 0.52023 0.73521 0.24221
 H1742 H 0.54119 0.72545 0.25057
 H1743 H 0.52976 0.73622 0.29070
 H1744 H 0.50882 0.74591 0.28226
 H1745 H 0.49207 0.72170 0.25906
 H1746 H 0.47106 0.71337 0.26872
 H1747 H 0.48033 0.76227 0.26833
 H1748 H 0.49174 0.78273 0.24441
 H1749 H 0.47072 0.79079 0.23460
 H1750 H 0.45952 0.75001 0.22517
 H1751 H 0.48057 0.74202 0.23504
 H1752 H 0.52015 0.76940 0.26129
 H1753 H 0.54118 0.77908 0.25294
 H1754 H 0.52980 0.76837 0.21281
 H1755 H 0.50879 0.75874 0.22122
 H1756 H 0.45928 0.75400 0.27804
 C1757 C -0.00151 0.74700 0.24587
 C1758 C -0.00148 0.75696 0.25509
 C1759 C -0.01424 0.76246 0.26031
 C1760 C 0.01119 0.76227 0.26082
 C1761 C 0.01110 0.74159 0.24013
 C1762 C -0.01430 0.74146 0.24077
 C1763 C -0.02064 0.77314 0.25383
 C1764 C -0.03280 0.77818 0.25873
 C1765 C -0.03880 0.77250 0.27011
 C1766 C -0.03235 0.76173 0.27651
 C1767 C -0.02014 0.75678 0.27166
 C1768 C 0.01435 0.77593 0.25959
 C1769 C 0.02645 0.78092 0.26466
 C1770 C 0.03558 0.77235 0.27116
 C1771 C 0.03226 0.75870 0.27256
 C1772 C 0.02017 0.75372 0.26747
 C1773 C 0.01425 0.72797 0.24159
 C1774 C 0.02626 0.72287 0.23643
 C1775 C 0.03530 0.73127 0.22960
 C1776 C 0.03202 0.74491 0.22801
 C1777 C 0.02002 0.75001 0.23322
 C1778 C -0.02051 0.73063 0.24720
 C1779 C -0.03257 0.72539 0.24229
 C1780 C -0.03866 0.73101 0.23094
 C1781 C -0.03243 0.74197 0.22463
 C1782 C -0.02031 0.74711 0.22948
 H1783 H -0.01623 0.77752 0.24496
 H1784 H -0.03762 0.78637 0.25351
 H1785 H -0.03666 0.75724 0.28536
 H1786 H -0.01530 0.74848 0.27670
 H1787 H 0.00757 0.78268 0.25446
 H1788 H 0.02878 0.79144 0.26327
 H1789 H 0.01779 0.74319 0.26870
 H1790 H 0.00754 0.72133 0.24695
 H1791 H 0.02857 0.71237 0.23801
 H1792 H 0.03864 0.75159 0.22260
 H1793 H 0.01766 0.76052 0.23184
 H1794 H -0.01602 0.72626 0.25601
 H1795 H -0.03723 0.71705 0.24744
 H1796 H -0.03684 0.74643 0.21582
 H1797 H -0.01560 0.75552 0.22446
 H1798 H 0.03894 0.75190 0.27773
 C1799 C 0.49869 0.74520 0.74743
 C1800 C 0.49854 0.75524 0.75664
 C1801 C 0.48576 0.76048 0.76226
 C1802 C 0.51116 0.76149 0.76160
 C1803 C 0.51146 0.73916 0.74262
 C1804 C 0.48609 0.73973 0.74162
 C1805 C 0.48299 0.77425 0.76159
 C1806 C 0.47092 0.77931 0.76663
 C1807 C 0.46141 0.77070 0.77253
 C1808 C 0.46432 0.75692 0.77338
 C1809 C 0.47641 0.75187 0.76835
 C1810 C 0.52060 0.76704 0.75276
 C1811 C 0.53261 0.77249 0.75756
 C1812 C 0.53533 0.77265 0.77131
 C1813 C 0.52569 0.76740 0.78015
 C1814 C 0.51371 0.76191 0.77534
 C1815 C 0.52084 0.73373 0.75157
 C1816 C 0.53289 0.72825 0.74688
 C1817 C 0.53569 0.72796 0.73314
 C1818 C 0.52615 0.73319 0.72422
 C1819 C 0.51414 0.73870 0.72892
 C1820 C 0.48359 0.72590 0.74219
 C1821 C 0.47180 0.72057 0.73678
 C1822 C 0.46231 0.72897 0.73061
 C1823 C 0.46492 0.74282 0.72991
 C1824 C 0.47673 0.74814 0.73531
 H1825 H 0.49010 0.78105 0.75696
 H1826 H 0.46893 0.78995 0.76570
 H1827 H 0.45732 0.75008 0.77809
 H1828 H 0.47850 0.74124 0.76921
 H1829 H 0.51868 0.76708 0.74214
 H1830 H 0.53973 0.77668 0.75053
 H1831 H 0.50652 0.75773 0.78232
 H1832 H 0.51882 0.73373 0.76217
 H1833 H 0.53995 0.72410 0.75397
 H1834 H 0.52807 0.73324 0.71360
 H1835 H 0.50701 0.74280 0.72186
 H1836 H 0.49071 0.71924 0.74698
 H1837 H 0.47003 0.70988 0.73760
 H1838 H 0.45792 0.74951 0.72501
 H1839 H 0.47862 0.75881 0.73452
 H1840 H 0.52754 0.76726 0.79077
 C1841 C 0.43038 0.27766 0.28959
 C1842 C 0.42547 0.28996 0.28500
 C1843 C 0.43263 0.29708 0.27528
 C1844 C 0.44470 0.29195 0.27023
 C1845 C 0.38080 0.30874 0.30603
 C1846 C 0.44243 0.27252 0.28457
 C1847 C 0.41318 0.29530 0.29042
 C1848 C 0.40292 0.29964 0.29516
 C1849 C 0.39096 0.30459 0.30094
 C1850 C 0.44976 0.27963 0.27487
 H1851 H 0.42490 0.27205 0.29709
 H1852 H 0.42894 0.30664 0.27168
 H1853 H 0.45018 0.29771 0.26286
 H1854 H 0.44597 0.26292 0.28820
 C1855 C 0.43619 0.79354 0.78959
 C1856 C 0.42418 0.78646 0.78772
 C1857 C 0.42430 0.77422 0.78090
 C1858 C 0.43641 0.76906 0.77597
 C1859 C 0.37952 0.80644 0.80762
 C1860 C 0.44830 0.78840 0.78468
 C1861 C 0.41177 0.79175 0.79292
 C1862 C 0.40149 0.79630 0.79740
 C1863 C 0.38958 0.80173 0.80282
 C1864 C 0.44855 0.77610 0.77781
 H1865 H 0.43621 0.80300 0.79490
 H1866 H 0.41505 0.76867 0.77938
 H1867 H 0.43625 0.75965 0.77058
 H1868 H 0.45749 0.79397 0.78642
 C1869 C -0.07397 0.27378 0.78270
 C1870 C -0.07468 0.28737 0.78612
 C1871 C -0.06347 0.29565 0.78415
 C1872 C -0.05160 0.29037 0.77882
 C1873 C -0.11905 0.30739 0.80674
 C1874 C -0.06211 0.26847 0.77738
 C1875 C -0.08687 0.29281 0.79169
 C1876 C -0.09704 0.29739 0.79640
 C1877 C -0.10893 0.30277 0.80195
 C1878 C -0.05077 0.27671 0.77539
 H1879 H -0.08260 0.26728 0.78415
 H1880 H -0.06389 0.30618 0.78680
 H1881 H -0.04300 0.29693 0.77758
 H1882 H -0.06185 0.25796 0.77468
 C1883 C -0.07391 0.77403 0.28496
 C1884 C -0.07600 0.78788 0.28578
 C1885 C -0.06601 0.79672 0.28133
 C1886 C -0.05395 0.79173 0.27612
 C1887 C -0.12088 0.80681 0.30638
 C1888 C -0.06185 0.76901 0.27979
 C1889 C -0.08833 0.79303 0.29133
 C1890 C -0.09863 0.79734 0.29604
 C1891 C -0.11065 0.80242 0.30161
 C1892 C -0.05172 0.77781 0.27536
 H1893 H -0.08159 0.76709 0.28834
 H1894 H -0.06750 0.80747 0.28196
 H1895 H -0.04627 0.79874 0.27293
 H1896 H -0.06048 0.75826 0.27917
 C1897 C 0.57412 0.72103 0.27453
 C1898 C 0.57408 0.71351 0.28630
 C1899 C 0.56198 0.71132 0.29310
 C1900 C 0.54997 0.71668 0.28820
 C1901 C 0.61909 0.69374 0.30568
 C1902 C 0.56210 0.72638 0.26960
 C1903 C 0.58646 0.70811 0.29146
 C1904 C 0.59679 0.70359 0.29587
 C1905 C 0.60884 0.69829 0.30113
 C1906 C 0.54989 0.72429 0.27640
 H1907 H 0.58343 0.72282 0.26920
 H1908 H 0.56183 0.70549 0.30221
 H1909 H 0.54071 0.71474 0.29357
 H1910 H 0.56240 0.73234 0.26058
 C1911 C 0.56559 0.20353 0.78094
 C1912 C 0.57600 0.21222 0.78463
 C1913 C 0.57437 0.22608 0.78316
 C1914 C 0.56235 0.23125 0.77806
 C1915 C 0.62079 0.19257 0.80457
 C1916 C 0.55358 0.20866 0.77582
 C1917 C 0.58832 0.20691 0.79001
 C1918 C 0.59860 0.20242 0.79455
 C1919 C 0.61059 0.19713 0.79993
 C1920 C 0.55181 0.22258 0.77434
 H1921 H 0.56673 0.19278 0.78209
 H1922 H 0.58238 0.23290 0.78595
 H1923 H 0.56134 0.24200 0.77690
 H1924 H 0.54558 0.20176 0.77321
 C1925 C 1.07384 0.71788 0.77129
 C1926 C 1.07391 0.70992 0.78277
 C1927 C 1.06184 0.70725 0.78945
 C1928 C 1.04975 0.71261 0.78476
 C1929 C 1.11913 0.69151 0.80284
 C1930 C 1.06176 0.72326 0.76657
 C1931 C 1.08638 0.70474 0.78790
 C1932 C 1.09677 0.70049 0.79241
 C1933 C 1.10887 0.69561 0.79793
 C1934 C 1.04958 0.72074 0.77330
 H1935 H 1.08314 0.72006 0.76607
 H1936 H 1.06178 0.70108 0.79834
 H1937 H 1.04053 0.71035 0.79005
 H1938 H 1.06197 0.72961 0.75782
 C1939 C 1.07521 0.22037 0.27272
 C1940 C 1.07528 0.21297 0.28457
 C1941 C 1.06323 0.21070 0.29142
 C1942 C 1.05115 0.21587 0.28650
 C1943 C 1.12035 0.19413 0.30459
 C1944 C 1.06313 0.22554 0.26777
 C1945 C 1.08772 0.20783 0.28982
 C1946 C 1.09808 0.20353 0.29436
 C1947 C 1.11012 0.19848 0.29982
 C1948 C 1.05097 0.22339 0.27465
 H1949 H 1.08450 0.22223 0.26737
 H1950 H 1.06316 0.20495 0.30058
 H1951 H 1.04192 0.21390 0.29191
 H1952 H 1.06333 0.23142 0.25871
 C1953 C 0.56455 0.29589 0.71945
 C1954 C 0.57522 0.28742 0.71601
 C1955 C 0.57395 0.27355 0.71775
 C1956 C 0.56201 0.26815 0.72280
 C1957 C 0.61940 0.30709 0.69468
 C1958 C 0.55260 0.29051 0.72454
 C1959 C 0.58738 0.29291 0.71042
 C1960 C 0.59752 0.29744 0.70559
 C1961 C 0.60934 0.30267 0.69977
 C1962 C 0.55118 0.27657 0.72619
 H1963 H 0.56540 0.30664 0.71808
 H1964 H 0.58217 0.26691 0.71515
 H1965 H 0.56126 0.25740 0.72414
 H1966 H 0.54438 0.29722 0.72692
 C1967 C 0.57430 0.78287 0.22895
 C1968 C 0.57443 0.79027 0.21710
 C1969 C 0.56238 0.79268 0.21032
 C1970 C 0.55025 0.78763 0.21528
 C1971 C 0.61984 0.80801 0.19664
 C1972 C 0.56217 0.77781 0.23394
 C1973 C 0.58694 0.79521 0.21177
 C1974 C 0.59737 0.79929 0.20714
 C1975 C 0.60952 0.80401 0.20155
 C1976 C 0.55001 0.78008 0.22713
 H1977 H 0.58357 0.78090 0.23426
 H1978 H 0.56237 0.79842 0.20115
 H1979 H 0.54104 0.78970 0.20991
 H1980 H 0.56233 0.77190 0.24299
 C1981 C 1.06324 0.29145 0.20792
 C1982 C 1.07541 0.28909 0.21451
 C1983 C 1.07549 0.28169 0.22636
 C1984 C 1.06346 0.27659 0.23155
 C1985 C 1.11986 0.30840 0.19344
 C1986 C 1.05121 0.28637 0.21308
 C1987 C 1.08777 0.29423 0.20904
 C1988 C 1.09801 0.29860 0.20427
 C1989 C 1.10986 0.30382 0.19850
 C1990 C 1.05119 0.27883 0.22493
 H1991 H 1.06305 0.29721 0.19877
 H1992 H 1.08486 0.27979 0.23153
 H1993 H 1.06380 0.27070 0.24060
 H1994 H 1.04191 0.28843 0.20786
 C1995 C 1.06273 0.79257 0.71102
 C1996 C 1.07480 0.78976 0.71762
 C1997 C 1.07471 0.78169 0.72902
 C1998 C 1.06259 0.77637 0.73377
 C1999 C 1.12005 0.80828 0.69753
 C2000 C 1.05062 0.78726 0.71574
 C2001 C 1.08729 0.79494 0.71248
 C2002 C 1.09769 0.79922 0.70797
 C2003 C 1.10978 0.80415 0.70244
 C2004 C 1.05041 0.77904 0.72713
 H2005 H 1.06269 0.79882 0.70220
 H2006 H 1.08400 0.77940 0.73417
 H2007 H 1.06278 0.76995 0.74247
 H2008 H 1.04139 0.78964 0.71052
 C2009 C 0.43836 0.70557 0.71253
 C2010 C 0.42611 0.71231 0.71400
 C2011 C 0.42566 0.72452 0.72087
 C2012 C 0.43743 0.72997 0.72626
 C2013 C 0.38269 0.69130 0.69255
 C2014 C 0.45013 0.71100 0.71791
 C2015 C 0.41406 0.70670 0.70835
 C2016 C 0.40407 0.70191 0.70350
 C2017 C 0.39249 0.69621 0.69767
 C2018 C 0.44980 0.72326 0.72484
 H2019 H 0.43883 0.69614 0.70719
 H2020 H 0.41622 0.72981 0.72207
 H2021 H 0.43682 0.73934 0.73168
 H2022 H 0.45952 0.70568 0.71648
 C2023 C 0.43089 0.22791 0.20862
 C2024 C 0.42570 0.21576 0.21336
 C2025 C 0.43251 0.20878 0.22340
 C2026 C 0.44449 0.21391 0.22866
 C2027 C 0.38114 0.19580 0.19315
 C2028 C 0.44287 0.23305 0.21385
 C2029 C 0.41345 0.21041 0.20786
 C2030 C 0.40322 0.20588 0.20323
 C2031 C 0.39129 0.20050 0.19779
 C2032 C 0.44982 0.22609 0.22392
 H2033 H 0.42568 0.23341 0.20088
 H2034 H 0.42861 0.19935 0.22712
 H2035 H 0.44969 0.20824 0.23627
 H2036 H 0.44662 0.24253 0.21012
 C2037 C -0.07376 0.72875 0.21629
 C2038 C -0.07550 0.71486 0.21527
 C2039 C -0.06526 0.70623 0.21950
 C2040 C -0.05330 0.71147 0.22469
 C2041 C -0.12052 0.69575 0.19523
 C2042 C -0.06180 0.73401 0.22142
 C2043 C -0.08778 0.70949 0.20985
 C2044 C -0.09808 0.70508 0.20526
 C2045 C -0.11017 0.70000 0.19986
 C2046 C -0.05143 0.72543 0.22566
 H2047 H -0.08165 0.73552 0.21310
 H2048 H -0.06648 0.69546 0.21872
 H2049 H -0.04542 0.70463 0.22772
 H2050 H -0.06070 0.74479 0.22221
 C2051 C -0.06482 0.20416 0.71777
 C2052 C -0.07595 0.21266 0.71648
 C2053 C -0.07478 0.22622 0.71991
 C2054 C -0.06254 0.23128 0.72457
 C2055 C -0.12203 0.19507 0.69755
 C2056 C -0.05256 0.20920 0.72244
 C2057 C -0.08853 0.20758 0.71149
 C2058 C -0.09909 0.20349 0.70721
 C2059 C -0.11147 0.19888 0.70207
 C2060 C -0.05128 0.22283 0.72586
 H2061 H -0.06560 0.19366 0.71510
 H2062 H -0.08333 0.23289 0.71897
 H2063 H -0.06193 0.24177 0.72730
 H2064 H -0.04404 0.20248 0.72318
 C2065 C 0.27127 0.42669 0.28426
 C2066 C 0.28306 0.42663 0.29189
 C2067 C 0.29006 0.43861 0.29407
 C2068 C 0.28537 0.45060 0.28857
 C2069 C 0.30286 0.38176 0.31121
 C2070 C 0.26656 0.43868 0.27876
 C2071 C 0.28814 0.41426 0.29728
 C2072 C 0.29260 0.40395 0.30174
 C2073 C 0.29804 0.39195 0.30688
 C2074 C 0.27360 0.45076 0.28080
 H2075 H 0.26580 0.41746 0.28247
 H2076 H 0.29918 0.43867 0.29998
 H2077 H 0.29090 0.45976 0.29047
 H2078 H 0.25756 0.43846 0.27269
 C2079 C 0.27525 -0.07385 0.78340
 C2080 C 0.28680 -0.07352 0.79136
 C2081 C 0.29320 -0.06129 0.79389
 C2082 C 0.28813 -0.04943 0.78846
 C2083 C 0.30722 -0.11751 0.81200
 C2084 C 0.27014 -0.06199 0.77795
 C2085 C 0.29214 -0.08571 0.79692
 C2086 C 0.29677 -0.09582 0.80163
 C2087 C 0.30235 -0.10756 0.80719
 C2088 C 0.27656 -0.04964 0.78040
 H2089 H 0.27022 -0.08328 0.78135
 H2090 H 0.30212 -0.06091 0.80008
 H2091 H 0.29318 -0.04006 0.79068
 H2092 H 0.26131 -0.06249 0.77167
 C2093 C 0.77336 0.42609 0.77827
 C2094 C 0.78510 0.42594 0.78597
 C2095 C 0.79202 0.43791 0.78841
 C2096 C 0.78728 0.44999 0.78314
 C2097 C 0.80412 0.38093 0.80574
 C2098 C 0.76859 0.43817 0.77300
 C2099 C 0.79011 0.41351 0.79130
 C2100 C 0.79443 0.40317 0.79581
 C2101 C 0.79961 0.39114 0.80113
 C2102 C 0.77553 0.45025 0.77534
 H2103 H 0.76794 0.41688 0.77630
 H2104 H 0.80110 0.43792 0.79439
 H2105 H 0.79274 0.45915 0.78527
 H2106 H 0.75961 0.43802 0.76690
 C2107 C 0.77353 -0.07286 0.27981
 C2108 C 0.78532 -0.07294 0.28743
 C2109 C 0.79228 -0.06095 0.28968
 C2110 C 0.78752 -0.04893 0.28430
 C2111 C 0.80407 -0.11801 0.30741
 C2112 C 0.76874 -0.06084 0.27442
 C2113 C 0.79032 -0.08533 0.29289
 C2114 C 0.79459 -0.09567 0.29746
 C2115 C 0.79967 -0.10773 0.30282
 C2116 C 0.77570 -0.04873 0.27659
 H2117 H 0.76808 -0.08209 0.27797
 H2118 H 0.80139 -0.06089 0.29560
 H2119 H 0.79300 -0.03976 0.28629
 H2120 H 0.75972 -0.06105 0.26838
 C2121 C 0.27367 0.57351 0.72068
 C2122 C 0.28525 0.57360 0.71274
 C2123 C 0.29198 0.56158 0.71005
 C2124 C 0.28720 0.54951 0.71532
 C2125 C 0.30518 0.61822 0.69288
 C2126 C 0.26886 0.56144 0.72597
 C2127 C 0.29036 0.58601 0.70742
 C2128 C 0.29484 0.59628 0.70290
 C2129 C 0.30032 0.60818 0.69754
 C2130 C 0.27562 0.54930 0.72339
 H2131 H 0.26841 0.58277 0.72286
 H2132 H 0.30093 0.56153 0.70388
 H2133 H 0.29251 0.54032 0.71301
 H2134 H 0.26001 0.56162 0.73226
 C2135 C 0.28173 1.07346 0.22770
 C2136 C 0.28906 1.07356 0.21579
 C2137 C 0.29149 1.06152 0.20904
 C2138 C 0.28653 1.04943 0.21412
 C2139 C 0.30713 1.11866 0.19525
 C2140 C 0.27677 1.06137 0.23281
 C2141 C 0.29398 1.08601 0.21039
 C2142 C 0.29810 1.09637 0.20572
 C2143 C 0.30295 1.10842 0.20012
 C2144 C 0.27907 1.04922 0.22603
 H2145 H 0.27976 1.08273 0.23299
 H2146 H 0.29718 1.06148 0.19983
 H2147 H 0.28863 1.04024 0.20877
 H2148 H 0.27092 1.06156 0.24191
 C2149 C 0.79384 0.56110 0.20747
 C2150 C 0.78729 0.57326 0.21002
 C2151 C 0.77541 0.57337 0.21753
 C2152 C 0.77010 0.56138 0.22248
 C2153 C 0.80687 0.61863 0.19144
 C2154 C 0.78855 0.54909 0.21244
 C2155 C 0.79275 0.58563 0.20492
 C2156 C 0.79727 0.59601 0.20067
 C2157 C 0.80249 0.60820 0.19569
 C2158 C 0.77661 0.54910 0.22000
 H2159 H 0.80302 0.56089 0.20164
 H2160 H 0.77029 0.58274 0.21959
 H2161 H 0.76100 0.56173 0.22843
 H2162 H 0.79371 0.53978 0.21023
 C2163 C 0.79278 1.06109 0.70600
 C2164 C 0.78591 1.07306 0.70860
 C2165 C 0.77401 1.07283 0.71606
 C2166 C 0.76902 1.06069 0.72096
 C2167 C 0.80487 1.11909 0.69117
 C2168 C 0.78781 1.04894 0.71090
 C2169 C 0.79114 1.08560 0.70375
 C2170 C 0.79549 1.09614 0.69975
 C2171 C 0.80057 1.10851 0.69511
 C2172 C 0.77589 1.04861 0.71848
 H2173 H 0.80199 1.06116 0.70021
 H2174 H 0.76865 1.08205 0.71817
 H2175 H 0.75993 1.06078 0.72692
 H2176 H 0.79324 1.03979 0.70870
 C2177 C 0.72621 0.57352 0.27696
 C2178 C 0.71416 0.57353 0.28419
 C2179 C 0.70722 0.56148 0.28625
 C2180 C 0.71231 0.54947 0.28112
 C2181 C 0.69491 0.61832 0.30431
 C2182 C 0.73132 0.56152 0.27181
 C2183 C 0.70895 0.58586 0.28957
 C2184 C 0.70455 0.59614 0.29414
 C2185 C 0.69936 0.60813 0.29958
 C2186 C 0.72442 0.54935 0.27384
 H2187 H 0.73164 0.58280 0.27527
 H2188 H 0.69790 0.56137 0.29187
 H2189 H 0.70685 0.54026 0.28300
 H2190 H 0.74056 0.56179 0.26610
 C2191 C 0.72748 1.07293 0.77713
 C2192 C 0.71575 1.07273 0.78486
 C2193 C 0.70915 1.06057 0.78726
 C2194 C 0.71422 1.04864 0.78192
 C2195 C 0.69600 1.11738 0.80484
 C2196 C 0.73258 1.06101 0.77179
 C2197 C 0.71043 1.08501 0.79027
 C2198 C 0.70591 1.09525 0.79482
 C2199 C 0.70057 1.10720 0.80020
 C2200 C 0.72598 1.04873 0.77409
 H2201 H 0.73265 1.08230 0.77518
 H2202 H 0.70009 1.06029 0.79327
 H2203 H 0.70902 1.03933 0.78402
 H2204 H 0.74155 1.06142 0.76568
 C2205 C 0.21131 0.56130 0.79298
 C2206 C 0.21791 0.57337 0.79011
 C2207 C 0.22961 0.57326 0.78234
 C2208 C 0.23463 0.56116 0.77735
 C2209 C 0.19736 0.61858 0.80794
 C2210 C 0.21630 0.54919 0.78799
 C2211 C 0.21253 0.58584 0.79500
 C2212 C 0.20787 0.59623 0.79908
 C2213 C 0.20226 0.60832 0.80385
 C2214 C 0.22798 0.54898 0.78006
 H2215 H 0.20227 0.56126 0.79902
 H2216 H 0.23478 0.58255 0.78003
 H2217 H 0.24354 0.56134 0.77114
 H2218 H 0.21106 0.53998 0.79040
 C2219 C 0.22219 1.07358 0.27465
 C2220 C 0.21473 1.07365 0.28649
 C2221 C 0.21218 1.06160 0.29316
 C2222 C 0.21710 1.04951 0.28806
 C2223 C 0.19600 1.11878 0.30633
 C2224 C 0.22711 1.06149 0.26952
 C2225 C 0.20972 1.08608 0.29182
 C2226 C 0.20547 1.09644 0.29636
 C2227 C 0.20042 1.10851 0.30173
 C2228 C 0.22465 1.04933 0.27620
 H2229 H 0.22425 1.08286 0.26942
 H2230 H 0.20637 1.06154 0.30230
 H2231 H 0.21489 1.04029 0.29333
 H2232 H 0.23303 1.06169 0.26046
 C2233 C 0.72862 0.42637 0.71648
 C2234 C 0.71684 0.42638 0.70885
 C2235 C 0.71018 0.43847 0.70632
 C2236 C 0.71521 0.45050 0.71146
 C2237 C 0.69638 0.38146 0.69019
 C2238 C 0.73368 0.43839 0.72162
 C2239 C 0.71146 0.41400 0.70374
 C2240 C 0.70682 0.40368 0.69947
 C2241 C 0.70124 0.39167 0.69448
 C2242 C 0.72700 0.45059 0.71921
 H2243 H 0.73383 0.41706 0.71854
 H2244 H 0.70107 0.43860 0.70040
 H2245 H 0.70994 0.45974 0.70928
 H2246 H 0.74268 0.43812 0.72770
 C2247 C 0.72931 -0.07324 0.21771
 C2248 C 0.71748 -0.07344 0.21015
 C2249 C 0.71060 -0.06146 0.20764
 C2250 C 0.71546 -0.04934 0.21274
 C2251 C 0.69771 -0.11880 0.19183
 C2252 C 0.73420 -0.06113 0.22281
 C2253 C 0.71230 -0.08592 0.20509
 C2254 C 0.70782 -0.09634 0.20089
 C2255 C 0.70243 -0.10848 0.19599
 C2256 C 0.72730 -0.04904 0.22041
 H2257 H 0.73469 -0.08246 0.21975
 H2258 H 0.70145 -0.06149 0.20178
 H2259 H 0.71002 -0.04019 0.21058
 H2260 H 0.74323 -0.06125 0.22882
 C2261 C 0.22615 0.42733 0.21917
 C2262 C 0.21451 0.42785 0.21136
 C2263 C 0.20803 0.44012 0.20927
 C2264 C 0.21314 0.45184 0.21500
 C2265 C 0.19395 0.38433 0.18983
 C2266 C 0.23128 0.43904 0.22492
 C2267 C 0.20912 0.41580 0.20553
 C2268 C 0.20447 0.40579 0.20061
 C2269 C 0.19887 0.39417 0.19482
 C2270 C 0.22481 0.45143 0.22292
 H2271 H 0.23121 0.41786 0.22088
 H2272 H 0.19903 0.44064 0.20321
 H2273 H 0.20804 0.46124 0.21313
 H2274 H 0.24019 0.43838 0.23109
 C2275 C 0.23013 -0.07406 0.71968
 C2276 C 0.21847 -0.07407 0.71187
 C2277 C 0.21167 -0.06203 0.70945
 C2278 C 0.21643 -0.05004 0.71490
 C2279 C 0.19843 -0.11898 0.69284
 C2280 C 0.23492 -0.06206 0.72514
 C2281 C 0.21329 -0.08644 0.70655
 C2282 C 0.20877 -0.09675 0.70217
 C2283 C 0.20327 -0.10877 0.69711
 C2284 C 0.22807 -0.04993 0.72287
 H2285 H 0.23545 -0.08333 0.72164
 H2286 H 0.20264 -0.06193 0.70340
 H2287 H 0.21104 -0.04084 0.71282
 H2288 H 0.24381 -0.06233 0.73136
 C2289 C 0.27572 0.28742 0.43323
 C2290 C 0.28784 0.28240 0.42818
 C2291 C 0.29469 0.27230 0.43508
 C2292 C 0.28946 0.26727 0.44702
 C2293 C 0.30712 0.30312 0.38389
 C2294 C 0.27050 0.28243 0.44517
 C2295 C 0.29327 0.28776 0.41599
 C2296 C 0.29772 0.29244 0.40582
 C2297 C 0.30282 0.29812 0.39397
 C2298 C 0.27733 0.27233 0.45223
 H2299 H 0.27032 0.29522 0.42796
 H2300 H 0.30409 0.26837 0.43127
 H2301 H 0.29503 0.25961 0.45230
 H2302 H 0.26104 0.28638 0.44881
 C2303 C 0.28796 0.79002 -0.06062
 C2304 C 0.28519 0.78344 -0.07262
 C2305 C 0.27734 0.77178 -0.07259
 C2306 C 0.27222 0.76675 -0.06061
 C2307 C 0.30447 0.80398 -0.11694
 C2308 C 0.28286 0.78502 -0.04864
 C2309 C 0.29033 0.78875 -0.08494
 C2310 C 0.29469 0.79338 -0.09516
 C2311 C 0.29990 0.79901 -0.10698
 C2312 C 0.27489 0.77335 -0.04850
 H2313 H 0.29406 0.79903 -0.06053
 H2314 H 0.27510 0.76663 -0.08184
 H2315 H 0.26599 0.75784 -0.06084
 H2316 H 0.28523 0.79022 -0.03947
 C2317 C 0.77354 0.27964 -0.07342
 C2318 C 0.78540 0.28722 -0.07329
 C2319 C 0.79211 0.28952 -0.06126
 C2320 C 0.78702 0.28423 -0.04939
 C2321 C 0.80548 0.30732 -0.11750
 C2322 C 0.76842 0.27434 -0.06155
 C2323 C 0.79074 0.29261 -0.08550
 C2324 C 0.79532 0.29718 -0.09565
 C2325 C 0.80077 0.30261 -0.10747
 C2326 C 0.77512 0.27655 -0.04940
 H2327 H 0.76829 0.27777 -0.08269
 H2328 H 0.80127 0.29540 -0.06105
 H2329 H 0.79231 0.28625 -0.04018
 H2330 H 0.75934 0.26834 -0.06190
 C2331 C 0.77141 0.77968 0.42715
 C2332 C 0.78331 0.78721 0.42708
 C2333 C 0.79007 0.78969 0.43905
 C2334 C 0.78500 0.78463 0.45104
 C2335 C 0.80313 0.80648 0.38236
 C2336 C 0.76631 0.77462 0.43913
 C2337 C 0.78861 0.79238 0.41475
 C2338 C 0.79313 0.79676 0.40448
 C2339 C 0.79850 0.80196 0.39252
 C2340 C 0.77307 0.77702 0.45122
 H2341 H 0.76611 0.77767 0.41793
 H2342 H 0.79926 0.79554 0.43912
 H2343 H 0.79034 0.78679 0.46019
 H2344 H 0.75721 0.76865 0.43892
 C2345 C 0.71980 0.27196 0.57191
 C2346 C 0.71210 0.28371 0.57197
 C2347 C 0.70966 0.29050 0.56001
 C2348 C 0.71495 0.28561 0.54805
 C2349 C 0.69309 0.30364 0.61671
 C2350 C 0.72509 0.26704 0.55996
 C2351 C 0.70684 0.28892 0.58429
 C2352 C 0.70248 0.29342 0.59456
 C2353 C 0.69740 0.29886 0.60654
 C2354 C 0.72276 0.27385 0.54790
 H2355 H 0.72178 0.26666 0.58112
 H2356 H 0.70369 0.29959 0.55994
 H2357 H 0.71284 0.29097 0.53891
 H2358 H 0.73119 0.25806 0.56018
 C2359 C 0.70777 0.79053 1.06082
 C2360 C 0.71039 0.78376 1.07275
 C2361 C 0.71799 0.77196 1.07260
 C2362 C 0.72304 0.76696 1.06057
 C2363 C 0.69247 0.80394 1.11784
 C2364 C 0.71281 0.78556 1.04878
 C2365 C 0.70542 0.78907 1.08515
 C2366 C 0.70130 0.79364 1.09550
 C2367 C 0.69652 0.79913 1.10757
 C2368 C 0.72054 0.77375 1.04852
 H2369 H 0.70187 0.79966 1.06082
 H2370 H 0.72012 0.76667 1.08178
 H2371 H 0.72910 0.75794 1.06071
 H2372 H 0.71058 0.79091 1.03967
 C2373 C 0.22691 0.27858 1.07273
 C2374 C 0.21505 0.28615 1.07275
 C2375 C 0.20827 0.28854 1.06078
 C2376 C 0.21329 0.28337 1.04883
 C2377 C 0.19510 0.30673 1.11678
 C2378 C 0.23196 0.27340 1.06078
 C2379 C 0.20982 0.29154 1.08500
 C2380 C 0.20530 0.29618 1.09515
 C2381 C 0.19985 0.30179 1.10688
 C2382 C 0.22519 0.27573 1.04869
 H2383 H 0.23223 0.27665 1.08195
 H2384 H 0.19911 0.29442 1.06068
 H2385 H 0.20795 0.28549 1.03967
 H2386 H 0.24104 0.26742 1.06101
 C2387 C 0.20738 0.78971 0.56187
 C2388 C 0.21017 0.78309 0.57384
 C2389 C 0.21784 0.77132 0.57372
 C2390 C 0.22279 0.76625 0.56168
 C2391 C 0.19267 0.80375 0.61885
 C2392 C 0.21233 0.78467 0.54983
 C2393 C 0.20534 0.78851 0.58624
 C2394 C 0.20133 0.79320 0.59657
 C2395 C 0.19666 0.79884 0.60862
 C2396 C 0.22015 0.77291 0.54961
 H2397 H 0.20142 0.79881 0.56184
 H2398 H 0.22010 0.76614 0.58293
 H2399 H 0.22891 0.75727 0.56185
 H2400 H 0.20998 0.78992 0.54069
 C2401 C 0.28953 0.70772 0.56165
 C2402 C 0.28707 0.71457 0.57357
 C2403 C 0.27936 0.72631 0.57348
 C2404 C 0.27406 0.73115 0.56151
 C2405 C 0.30684 0.69459 0.61787
 C2406 C 0.28424 0.71253 0.54968
 C2407 C 0.29238 0.70943 0.58588
 C2408 C 0.29687 0.70493 0.59608
 C2409 C 0.30220 0.69945 0.60790
 C2410 C 0.27640 0.72428 0.54949
 H2411 H 0.29552 0.69864 0.56160
 H2412 H 0.27737 0.73166 0.58267
 H2413 H 0.26793 0.74012 0.56170
 H2414 H 0.28636 0.70713 0.54056
 C2415 C 0.27276 0.21815 1.07255
 C2416 C 0.28472 0.21075 1.07279
 C2417 C 0.29164 0.20823 1.06091
 C2418 C 0.28669 0.21317 1.04884
 C2419 C 0.30456 0.19273 1.11794
 C2420 C 0.26778 0.22309 1.06048
 C2421 C 0.28997 0.20584 1.08522
 C2422 C 0.29448 0.20173 1.09559
 C2423 C 0.29987 0.19690 1.10767
 C2424 C 0.27472 0.22069 1.04849
 H2425 H 0.26733 0.22019 1.08170
 H2426 H 0.30089 0.20248 1.06098
 H2427 H 0.29217 0.21101 1.03976
 H2428 H 0.25864 0.22899 1.06057
 C2429 C 0.79001 0.70882 1.06079
 C2430 C 0.78764 0.71578 1.07267
 C2431 C 0.77998 0.72755 1.07250
 C2432 C 0.77465 0.73232 1.06051
 C2433 C 0.80667 0.69651 1.11767
 C2434 C 0.78469 0.71355 1.04880
 C2435 C 0.79292 0.71071 1.08504
 C2436 C 0.79729 0.70634 1.09536
 C2437 C 0.80238 0.70108 1.10740
 C2438 C 0.77691 0.72533 1.04852
 H2439 H 0.79595 0.69971 1.06081
 H2440 H 0.77803 0.73299 1.08164
 H2441 H 0.76857 0.74132 1.06064
 H2442 H 0.78675 0.70805 1.03972
 C2443 C 0.78227 0.22789 0.57198
 C2444 C 0.78985 0.21608 0.57224
 C2445 C 0.79223 0.20903 0.56042
 C2446 C 0.78699 0.21373 0.54838
 C2447 C 0.80821 0.19685 0.61749
 C2448 C 0.77702 0.23262 0.55994
 C2449 C 0.79502 0.21104 0.58465
 C2450 C 0.79928 0.20669 0.59502
 C2451 C 0.80416 0.20145 0.60714
 C2452 C 0.77929 0.22556 0.54801
 H2453 H 0.78032 0.23339 0.58109
 H2454 H 0.79809 0.19987 0.56051
 H2455 H 0.78905 0.20817 0.53934
 H2456 H 0.77099 0.24166 0.56001
 C2457 C 0.72568 0.71863 0.42712
 C2458 C 0.71375 0.71116 0.42691
 C2459 C 0.70673 0.70885 0.43878
 C2460 C 0.71157 0.71401 0.45081
 C2461 C 0.69452 0.69211 0.38189
 C2462 C 0.73055 0.72381 0.43914
 C2463 C 0.70864 0.70595 0.41453
 C2464 C 0.70427 0.70159 0.40420
 C2465 C 0.69905 0.69649 0.39214
 C2466 C 0.72353 0.72158 0.45112
 H2467 H 0.73117 0.72052 0.41798
 H2468 H 0.69750 0.70305 0.43874
 H2469 H 0.70603 0.71198 0.45988
 H2470 H 0.73968 0.72974 0.43902
 C2471 C 0.70853 0.20818 -0.06219
 C2472 C 0.71543 0.21066 -0.07410
 C2473 C 0.72732 0.21819 -0.07394
 C2474 C 0.73228 0.22326 -0.06191
 C2475 C 0.69604 0.19167 -0.11906
 C2476 C 0.71346 0.21325 -0.05017
 C2477 C 0.71025 0.20552 -0.08647
 C2478 C 0.70583 0.20119 -0.09679
 C2479 C 0.70057 0.19608 -0.10883
 C2480 C 0.72538 0.22088 -0.04989
 H2481 H 0.69934 0.20233 -0.06220
 H2482 H 0.73272 0.22020 -0.08310
 H2483 H 0.74138 0.22924 -0.06205
 H2484 H 0.70802 0.21110 -0.04106
 C2485 C 0.21648 0.72762 -0.07246
 C2486 C 0.20885 0.71583 -0.07291
 C2487 C 0.20609 0.70884 -0.06113
 C2488 C 0.21102 0.71355 -0.04896
 C2489 C 0.19153 0.69608 -0.11836
 C2490 C 0.22142 0.73236 -0.06030
 C2491 C 0.20406 0.71073 -0.08545
 C2492 C 0.20009 0.70627 -0.09589
 C2493 C 0.19547 0.70086 -0.10805
 C2494 C 0.21880 0.72533 -0.04842
 H2495 H 0.21872 0.73309 -0.08153
 H2496 H 0.20017 0.69971 -0.06136
 H2497 H 0.20870 0.70801 -0.03997
 H2498 H 0.22752 0.74137 -0.06021
 C2499 C 0.22445 0.20791 0.43305
 C2500 C 0.21242 0.21302 0.42792
 C2501 C 0.20550 0.22305 0.43488
 C2502 C 0.21058 0.22793 0.44693
 C2503 C 0.19348 0.19374 0.38288
 C2504 C 0.22955 0.21276 0.44510
 C2505 C 0.20715 0.20790 0.41557
 C2506 C 0.20281 0.20351 0.40524
 C2507 C 0.19777 0.19828 0.39317
 C2508 C 0.22266 0.22282 0.45219
 H2509 H 0.22991 0.20018 0.42772
 H2510 H 0.19615 0.22705 0.43102
 H2511 H 0.20497 0.23556 0.45223
 H2512 H 0.23896 0.20877 0.44878
 C2513 C 0.27751 0.43137 0.71055
 C2514 C 0.28984 0.42643 0.71513
 C2515 C 0.29690 0.43344 0.72499
 C2516 C 0.29167 0.44535 0.73022
 C2517 C 0.30896 0.38175 0.69462
 C2518 C 0.27227 0.44328 0.71576
 C2519 C 0.29522 0.41420 0.70967
 C2520 C 0.29962 0.40396 0.70500
 C2521 C 0.30469 0.39198 0.69944
 C2522 C 0.27930 0.45042 0.72564
 H2523 H 0.27193 0.42601 0.70296
 H2524 H 0.30648 0.42973 0.72859
 H2525 H 0.29739 0.45070 0.73771
 H2526 H 0.26263 0.44682 0.71216
 C2527 C 0.29327 0.93738 0.21150
 C2528 C 0.28626 0.92544 0.21385
 C2529 C 0.27427 0.92567 0.22117
 C2530 C 0.26932 0.93781 0.22615
 C2531 C 0.30532 0.88017 0.19461
 C2532 C 0.28834 0.94952 0.21648
 C2533 C 0.29139 0.91296 0.20873
 C2534 C 0.29576 0.90256 0.20437
 C2535 C 0.30091 0.89046 0.19916
 C2536 C 0.27632 0.94987 0.22388
 H2537 H 0.30254 0.93732 0.20580
 H2538 H 0.26878 0.91648 0.22308
 H2539 H 0.26013 0.93773 0.23196
 H2540 H 0.29387 0.95865 0.21442
 C2541 C 0.77341 0.42840 0.21152
 C2542 C 0.78709 0.42545 0.21308
 C2543 C 0.79551 0.43454 0.21969
 C2544 C 0.79028 0.44656 0.22466
 C2545 C 0.80706 0.38116 0.19259
 C2546 C 0.76818 0.44044 0.21643
 C2547 C 0.79253 0.41324 0.20767
 C2548 C 0.79709 0.40306 0.20301
 C2549 C 0.80244 0.39122 0.19743
 C2550 C 0.77658 0.44967 0.22300
 H2551 H 0.76681 0.42141 0.20645
 H2552 H 0.80613 0.43238 0.22091
 H2553 H 0.79700 0.45356 0.22957
 H2554 H 0.75756 0.44250 0.21517
 C2555 C 0.78182 0.92511 0.72625
 C2556 C 0.78909 0.92444 0.71433
 C2557 C 0.79162 0.93616 0.70707
 C2558 C 0.78677 0.94849 0.71164
 C2559 C 0.80548 0.87783 0.69596
 C2560 C 0.77697 0.93743 0.73084
 C2561 C 0.79372 0.91170 0.70941
 C2562 C 0.79749 0.90101 0.70523
 C2563 C 0.80181 0.88850 0.70027
 C2564 C 0.77932 0.94925 0.72354
 H2565 H 0.77977 0.91609 0.73193
 H2566 H 0.79728 0.93576 0.69785
 H2567 H 0.78891 0.95744 0.70591
 H2568 H 0.77113 0.93766 0.73996
 C2569 C 0.71129 0.56191 0.70610
 C2570 C 0.71361 0.57390 0.71298
 C2571 C 0.72112 0.57377 0.72477
 C2572 C 0.72633 0.56171 0.72964
 C2573 C 0.69400 0.61904 0.69409
 C2574 C 0.71649 0.54984 0.71095
 C2575 C 0.70831 0.58631 0.70790
 C2576 C 0.70384 0.59667 0.70359
 C2577 C 0.69857 0.60876 0.69848
 C2578 C 0.72410 0.54961 0.72276
 H2579 H 0.70545 0.56189 0.69699
 H2580 H 0.72300 0.58300 0.73015
 H2581 H 0.73229 0.56188 0.73867
 H2582 H 0.71445 0.54067 0.70553
 C2583 C 0.71000 0.06231 0.20761
 C2584 C 0.71247 0.07433 0.21438
 C2585 C 0.72024 0.07426 0.22600
 C2586 C 0.72556 0.06222 0.23083
 C2587 C 0.69316 0.11944 0.19505
 C2588 C 0.71532 0.05026 0.21241
 C2589 C 0.70715 0.08674 0.20929
 C2590 C 0.70271 0.09710 0.20492
 C2591 C 0.69755 0.10917 0.19966
 C2592 C 0.72318 0.05009 0.22405
 H2593 H 0.70398 0.06224 0.19862
 H2594 H 0.72226 0.08352 0.23129
 H2595 H 0.73171 0.06243 0.23972
 H2596 H 0.71317 0.04107 0.20707
 C2597 C 0.20823 0.56117 0.21076
 C2598 C 0.21073 0.57335 0.21724
 C2599 C 0.21867 0.57358 0.22874
 C2600 C 0.22416 0.56168 0.23371
 C2601 C 0.19111 0.61786 0.19696
 C2602 C 0.21372 0.54927 0.21570
 C2603 C 0.20528 0.58561 0.21195
 C2604 C 0.20077 0.59583 0.20736
 C2605 C 0.19553 0.60774 0.20183
 C2606 C 0.22179 0.54940 0.22721
 H2607 H 0.20208 0.56088 0.20186
 H2608 H 0.22071 0.58296 0.23380
 H2609 H 0.23046 0.56212 0.24250
 H2610 H 0.21156 0.53996 0.21058
 C2611 C 0.21024 0.06094 0.71114
 C2612 C 0.21221 0.07293 0.71812
 C2613 C 0.21948 0.07287 0.73005
 C2614 C 0.22485 0.06087 0.73494
 C2615 C 0.19309 0.11775 0.69797
 C2616 C 0.21559 0.04895 0.71600
 C2617 C 0.20692 0.08530 0.71289
 C2618 C 0.20253 0.09559 0.70833
 C2619 C 0.19743 0.10757 0.70281
 C2620 C 0.22302 0.04877 0.72793
 H2621 H 0.20460 0.06087 0.70191
 H2622 H 0.22109 0.08210 0.73552
 H2623 H 0.23065 0.06111 0.74406
 H2624 H 0.21383 0.03978 0.71048
 C2625 C 0.28228 0.57379 0.27227
 C2626 C 0.29000 0.57410 0.28392
 C2627 C 0.29256 0.56220 0.29085
 C2628 C 0.28732 0.55004 0.28624
 C2629 C 0.30794 0.61965 0.30354
 C2630 C 0.27704 0.56163 0.26763
 C2631 C 0.29506 0.58665 0.28895
 C2632 C 0.29920 0.59711 0.29336
 C2633 C 0.30395 0.60930 0.29875
 C2634 C 0.27944 0.54963 0.27462
 H2635 H 0.28019 0.58295 0.26686
 H2636 H 0.29855 0.56232 0.29987
 H2637 H 0.28949 0.54095 0.29173
 H2638 H 0.27087 0.56166 0.25875
 C2639 C 0.29127 0.06202 0.79288
 C2640 C 0.28865 0.07390 0.78594
 C2641 C 0.28128 0.07350 0.77407
 C2642 C 0.27647 0.06127 0.76920
 C2643 C 0.30553 0.12021 0.80463
 C2644 C 0.28645 0.04978 0.78804
 C2645 C 0.29337 0.08653 0.79106
 C2646 C 0.29723 0.09713 0.79536
 C2647 C 0.30170 0.10957 0.80038
 C2648 C 0.27893 0.04929 0.77618
 H2649 H 0.29700 0.06222 0.80206
 H2650 H 0.27916 0.08265 0.76865
 H2651 H 0.27060 0.06123 0.76011
 H2652 H 0.28869 0.04069 0.79351
 C2653 C 0.79210 0.56164 0.78901
 C2654 C 0.78969 0.57368 0.78226
 C2655 C 0.78231 0.57358 0.77039
 C2656 C 0.77729 0.56150 0.76533
 C2657 C 0.80739 0.61891 0.80285
 C2658 C 0.78709 0.54956 0.78397
 C2659 C 0.79460 0.58613 0.78766
 C2660 C 0.79867 0.59652 0.79232
 C2661 C 0.80339 0.60862 0.79793
 C2662 C 0.77957 0.54936 0.77210
 H2663 H 0.79783 0.56159 0.79819
 H2664 H 0.78034 0.58285 0.76511
 H2665 H 0.77140 0.56170 0.75626
 H2666 H 0.78917 0.54036 0.78932
 C2667 C 0.78209 0.07466 0.27007
 C2668 C 0.78975 0.07493 0.28176
 C2669 C 0.79246 0.06297 0.28853
 C2670 C 0.78744 0.05080 0.28371
 C2671 C 0.80738 0.12058 0.30146
 C2672 C 0.77707 0.06250 0.26522
 C2673 C 0.79465 0.08748 0.28694
 C2674 C 0.79870 0.09796 0.29141
 C2675 C 0.80340 0.11018 0.29678
 C2676 C 0.77964 0.05043 0.27203
 H2677 H 0.77989 0.08387 0.26477
 H2678 H 0.79841 0.06305 0.29757
 H2679 H 0.78974 0.04166 0.28908
 H2680 H 0.77096 0.06256 0.25629
 C2681 C 0.70446 0.43518 0.27537
 C2682 C 0.71299 0.42586 0.28149
 C2683 C 0.72680 0.42851 0.28238
 C2684 C 0.73205 0.44048 0.27731
 C2685 C 0.69356 0.38178 0.30304
 C2686 C 0.70971 0.44714 0.27023
 C2687 C 0.70757 0.41372 0.28712
 C2688 C 0.70311 0.40360 0.29200
 C2689 C 0.69794 0.39181 0.29789
 C2690 C 0.72354 0.44995 0.27124
 H2691 H 0.69375 0.43326 0.27468
 H2692 H 0.73349 0.42135 0.28706
 H2693 H 0.74276 0.44232 0.27806
 H2694 H 0.70292 0.45432 0.26573
 C2695 C 0.71111 0.93832 0.78953
 C2696 C 0.71345 0.92612 0.78304
 C2697 C 0.72084 0.92591 0.77116
 C2698 C 0.72595 0.93784 0.76584
 C2699 C 0.69445 0.88157 0.80397
 C2700 C 0.71620 0.95025 0.78423
 C2701 C 0.70831 0.91384 0.78863
 C2702 C 0.70399 0.90361 0.79341
 C2703 C 0.69888 0.89170 0.79908
 C2704 C 0.72372 0.95015 0.77234
 H2705 H 0.70536 0.93861 0.79870
 H2706 H 0.72272 0.91652 0.76606
 H2707 H 0.73183 0.93741 0.75676
 H2708 H 0.71415 0.95958 0.78938
 C2709 C 0.20735 0.43284 0.77698
 C2710 C 0.21426 0.42570 0.78683
 C2711 C 0.22658 0.43052 0.79159
 C2712 C 0.23194 0.44247 0.78659
 C2713 C 0.19365 0.38147 0.80692
 C2714 C 0.21270 0.44479 0.77195
 C2715 C 0.20865 0.41352 0.79218
 C2716 C 0.20394 0.40337 0.79676
 C2717 C 0.19841 0.39153 0.80221
 C2718 C 0.22503 0.44977 0.77674
 H2719 H 0.19779 0.42922 0.77325
 H2720 H 0.23203 0.42505 0.79919
 H2721 H 0.24154 0.44594 0.79034
 H2722 H 0.20707 0.45026 0.76449
 C2723 C 0.20854 0.93802 0.29004
 C2724 C 0.21530 0.92594 0.28767
 C2725 C 0.22732 0.92596 0.28039
 C2726 C 0.23255 0.93801 0.27547
 C2727 C 0.19523 0.88091 0.30644
 C2728 C 0.21374 0.95007 0.28512
 C2729 C 0.20988 0.91355 0.29270
 C2730 C 0.20528 0.90321 0.29696
 C2731 C 0.19986 0.89116 0.30203
 C2732 C 0.22580 0.95020 0.27776
 H2733 H 0.19925 0.93812 0.29571
 H2734 H 0.23262 0.91667 0.27847
 H2735 H 0.24175 0.93776 0.26968
 H2736 H 0.20841 0.95930 0.28720
 C2737 C 0.43880 0.29283 0.71397
 C2738 C 0.42735 0.28467 0.71330
 C2739 C 0.42793 0.27147 0.71802
 C2740 C 0.43989 0.26644 0.72338
 C2741 C 0.38263 0.30429 0.69318
 C2742 C 0.45077 0.28782 0.71930
 C2743 C 0.41505 0.28986 0.70778
 C2744 C 0.40479 0.29431 0.70316
 C2745 C 0.39282 0.29964 0.69776
 C2746 C 0.45147 0.27456 0.72407
 H2747 H 0.43847 0.30305 0.71032
 H2748 H 0.41912 0.26508 0.71759
 H2749 H 0.44004 0.25626 0.72712
 H2750 H 0.45954 0.29427 0.71951
 C2751 C 0.43821 0.79234 0.21025
 C2752 C 0.42619 0.78546 0.21273
 C2753 C 0.42634 0.77377 0.22046
 C2754 C 0.43846 0.76902 0.22574
 C2755 C 0.38085 0.80437 0.19329
 C2756 C 0.45033 0.78762 0.21553
 C2757 C 0.41371 0.79046 0.20742
 C2758 C 0.40330 0.79476 0.20297
 C2759 C 0.39117 0.79990 0.19776
 C2760 C 0.45059 0.77592 0.22337
 H2761 H 0.43822 0.80138 0.20426
 H2762 H 0.41709 0.76838 0.22247
 H2763 H 0.43830 0.76009 0.23187
 H2764 H 0.45951 0.79305 0.21338
 C2765 C 0.94012 0.29320 0.20941
 C2766 C 0.92797 0.28650 0.21177
 C2767 C 0.92786 0.27478 0.21943
 C2768 C 0.93985 0.26977 0.22474
 C2769 C 0.88319 0.30603 0.19178
 C2770 C 0.95211 0.28822 0.21472
 C2771 C 0.91564 0.29172 0.20636
 C2772 C 0.90536 0.29617 0.20180
 C2773 C 0.89338 0.30146 0.19642
 C2774 C 0.95211 0.27646 0.22246
 H2775 H 0.94032 0.30227 0.20347
 H2776 H 0.91850 0.26954 0.22135
 H2777 H 0.93951 0.26079 0.23080
 H2778 H 0.96141 0.29350 0.21266
 C2779 C 0.93906 0.79325 0.71033
 C2780 C 0.92697 0.78642 0.71260
 C2781 C 0.92697 0.77455 0.72003
 C2782 C 0.93900 0.76951 0.72518
 C2783 C 0.88132 0.80479 0.69348
 C2784 C 0.95112 0.78824 0.71548
 C2785 C 0.91455 0.79157 0.70733
 C2786 C 0.90410 0.79580 0.70295
 C2787 C 0.89183 0.80067 0.69784
 C2788 C 0.95121 0.77630 0.72295
 H2789 H 0.93918 0.80244 0.70456
 H2790 H 0.91765 0.76921 0.72188
 H2791 H 0.93873 0.76041 0.73106
 H2792 H 0.96038 0.79361 0.71349
 C2793 C 0.57349 0.27364 0.28162
 C2794 C 0.57367 0.28539 0.28926
 C2795 C 0.56167 0.29230 0.29170
 C2796 C 0.54954 0.28757 0.28644
 C2797 C 0.61899 0.30506 0.30804
 C2798 C 0.56136 0.26887 0.27636
 C2799 C 0.58617 0.29049 0.29445
 C2800 C 0.59658 0.29493 0.29876
 C2801 C 0.60870 0.30032 0.30378
 C2802 C 0.54926 0.27582 0.27866
 H2803 H 0.58273 0.26823 0.27964
 H2804 H 0.56169 0.30139 0.29763
 H2805 H 0.54037 0.29303 0.28854
 H2806 H 0.56149 0.25990 0.27028
 C2807 C 0.57258 0.78030 0.77481
 C2808 C 0.57274 0.78803 0.78645
 C2809 C 0.56067 0.79088 0.79305
 C2810 C 0.54849 0.78597 0.78809
 C2811 C 0.61829 0.80652 0.80584
 C2812 C 0.56041 0.77538 0.76982
 C2813 C 0.58527 0.79300 0.79167
 C2814 C 0.59573 0.79719 0.79611
 C2815 C 0.60793 0.80217 0.80135
 C2816 C 0.54822 0.77813 0.77643
 H2817 H 0.58187 0.77801 0.76964
 H2818 H 0.56067 0.79690 0.80204
 H2819 H 0.53926 0.78839 0.79330
 H2820 H 0.56054 0.76923 0.76093
 C2821 C 0.07174 0.27331 0.78224
 C2822 C 0.07273 0.28697 0.78529
 C2823 C 0.06174 0.29544 0.78303
 C2824 C 0.04978 0.29026 0.77780
 C2825 C 0.11718 0.30653 0.80612
 C2826 C 0.05978 0.26811 0.77702
 C2827 C 0.08496 0.29228 0.79088
 C2828 C 0.09516 0.29675 0.79563
 C2829 C 0.10706 0.30201 0.80126
 C2830 C 0.04865 0.27653 0.77477
 H2831 H 0.08019 0.26667 0.78392
 H2832 H 0.06238 0.30602 0.78540
 H2833 H 0.04134 0.29696 0.77634
 H2834 H 0.05927 0.25753 0.77463
 C2835 C 0.06123 0.79523 0.28764
 C2836 C 0.07300 0.78761 0.28650
 C2837 C 0.07256 0.77503 0.28033
 C2838 C 0.06041 0.77006 0.27533
 C2839 C 0.11845 0.80627 0.30599
 C2840 C 0.04906 0.79028 0.28266
 C2841 C 0.08549 0.79268 0.29173
 C2842 C 0.09592 0.79695 0.29617
 C2843 C 0.10809 0.80197 0.30143
 C2844 C 0.04851 0.77763 0.27645
 H2845 H 0.06145 0.80497 0.29243
 H2846 H 0.08162 0.76906 0.27937
 H2847 H 0.06036 0.76038 0.27044
 H2848 H 0.04006 0.79628 0.28383
 C2849 C 0.57287 0.71998 0.72967
 C2850 C 0.57294 0.71219 0.71807
 C2851 C 0.56084 0.70933 0.71155
 C2852 C 0.54871 0.71435 0.71653
 C2853 C 0.61810 0.69408 0.69754
 C2854 C 0.56074 0.72501 0.73467
 C2855 C 0.58542 0.70726 0.71272
 C2856 C 0.59580 0.70313 0.70806
 C2857 C 0.60786 0.69827 0.70244
 C2858 C 0.54853 0.72230 0.72810
 H2859 H 0.58219 0.72228 0.73478
 H2860 H 0.56078 0.70327 0.70259
 H2861 H 0.53946 0.71194 0.71136
 H2862 H 0.56093 0.73123 0.74351
 C2863 C 0.57365 0.22834 0.22087
 C2864 C 0.57363 0.21663 0.21317
 C2865 C 0.56145 0.21017 0.21035
 C2866 C 0.54935 0.21534 0.21524
 C2867 C 0.61872 0.19637 0.19445
 C2868 C 0.56155 0.23354 0.22577
 C2869 C 0.58607 0.21120 0.20818
 C2870 C 0.59642 0.20657 0.20393
 C2871 C 0.60848 0.20108 0.19887
 C2872 C 0.54926 0.22707 0.22304
 H2873 H 0.58302 0.23340 0.22314
 H2874 H 0.56132 0.20113 0.20436
 H2875 H 0.54005 0.21024 0.21282
 H2876 H 0.56182 0.24249 0.23188
 C2877 C 0.07211 0.72820 0.21978
 C2878 C 0.07236 0.71544 0.21398
 C2879 C 0.06053 0.70787 0.21325
 C2880 C 0.04848 0.71302 0.21829
 C2881 C 0.11722 0.69521 0.19471
 C2882 C 0.06007 0.73337 0.22485
 C2883 C 0.08474 0.71009 0.20877
 C2884 C 0.09505 0.70550 0.20437
 C2885 C 0.10705 0.70000 0.19918
 C2886 C 0.04810 0.72584 0.22416
 H2887 H 0.08123 0.73413 0.22043
 H2888 H 0.06061 0.69799 0.20875
 H2889 H 0.03942 0.70703 0.21744
 H2890 H 0.06017 0.74319 0.22948
 C2891 C 0.06244 0.20511 0.71678
 C2892 C 0.07327 0.21377 0.71447
 C2893 C 0.07197 0.22747 0.71726
 C2894 C 0.05987 0.23248 0.72235
 C2895 C 0.11854 0.19432 0.69534
 C2896 C 0.05034 0.21010 0.72188
 C2897 C 0.08572 0.20859 0.70924
 C2898 C 0.09611 0.20417 0.70486
 C2899 C 0.10823 0.19890 0.69973
 C2900 C 0.04892 0.22384 0.72473
 H2901 H 0.06332 0.19450 0.71461
 H2902 H 0.08031 0.23426 0.71554
 H2903 H 0.05914 0.24308 0.72459
 H2904 H 0.04203 0.20323 0.72342
 C2905 C 0.42631 0.72971 0.28226
 C2906 C 0.42621 0.71803 0.28999
 C2907 C 0.43829 0.71136 0.29269
 C2908 C 0.45043 0.71630 0.28761
 C2909 C 0.38084 0.69784 0.30819
 C2910 C 0.43844 0.73467 0.27718
 C2911 C 0.41371 0.71274 0.29501
 C2912 C 0.40329 0.70816 0.29918
 C2913 C 0.39116 0.70265 0.30405
 C2914 C 0.45063 0.72798 0.27975
 H2915 H 0.41701 0.73492 0.28008
 H2916 H 0.43833 0.70233 0.29868
 H2917 H 0.45966 0.71102 0.28990
 H2918 H 0.43826 0.74359 0.27103
 C2919 C 0.42824 0.22389 0.77998
 C2920 C 0.42763 0.21062 0.78445
 C2921 C 0.43916 0.20258 0.78404
 C2922 C 0.45128 0.20781 0.77921
 C2923 C 0.38195 0.19242 0.80373
 C2924 C 0.44032 0.22914 0.77513
 C2925 C 0.41520 0.20534 0.78959
 C2926 C 0.40474 0.20111 0.79397
 C2927 C 0.39245 0.19635 0.79918
 C2928 C 0.45200 0.22118 0.77473
 H2929 H 0.41936 0.23019 0.78025
 H2930 H 0.43880 0.19229 0.78752
 H2931 H 0.46012 0.20146 0.77916
 H2932 H 0.44049 0.23939 0.77156
 C2933 C 0.92626 0.72834 0.78144
 C2934 C 0.92612 0.71640 0.78878
 C2935 C 0.93813 0.70940 0.79089
 C2936 C 0.95022 0.71425 0.78563
 C2937 C 0.88078 0.69660 0.80752
 C2938 C 0.93834 0.73321 0.77616
 C2939 C 0.91365 0.71122 0.79399
 C2940 C 0.90325 0.70673 0.79830
 C2941 C 0.89111 0.70133 0.80330
 C2942 C 0.95046 0.72620 0.77815
 H2943 H 0.91701 0.73381 0.77970
 H2944 H 0.93815 0.70017 0.79659
 H2945 H 0.95939 0.70872 0.78749
 H2946 H 0.93817 0.74234 0.77032
 C2947 C 0.92745 0.22937 0.28116
 C2948 C 0.92731 0.21755 0.28867
 C2949 C 0.93935 0.21072 0.29112
 C2950 C 0.95148 0.21562 0.28601
 C2951 C 0.88189 0.19742 0.30679
 C2952 C 0.93958 0.23430 0.27604
 C2953 C 0.91480 0.21227 0.29369
 C2954 C 0.90438 0.20771 0.29785
 C2955 C 0.89222 0.20221 0.30268
 C2956 C 0.95172 0.22744 0.27835
 H2957 H 0.91818 0.23471 0.27916
 H2958 H 0.93936 0.20157 0.29695
 H2959 H 0.96068 0.21021 0.28811
 H2960 H 0.93942 0.24333 0.27004
 C2961 C 0.27310 0.27925 0.57448
 C2962 C 0.28495 0.28685 0.57435
 C2963 C 0.29166 0.28914 0.56230
 C2964 C 0.28661 0.28379 0.55044
 C2965 C 0.30544 0.30628 0.61866
 C2966 C 0.26802 0.27390 0.56262
 C2967 C 0.29034 0.29217 0.58657
 C2968 C 0.29499 0.29661 0.59674
 C2969 C 0.30057 0.30182 0.60859
 C2970 C 0.27476 0.27606 0.55047
 H2971 H 0.26784 0.27738 0.58376
 H2972 H 0.30082 0.29504 0.56208
 H2973 H 0.29192 0.28579 0.54123
 H2974 H 0.25896 0.26786 0.56299
 C2975 C 0.29043 0.78863 0.06174
 C2976 C 0.28373 0.78627 0.07377
 C2977 C 0.27176 0.77887 0.07385
 C2978 C 0.26653 0.77380 0.06194
 C2979 C 0.30414 0.80522 0.11830
 C2980 C 0.28523 0.78358 0.04982
 C2981 C 0.28919 0.79139 0.08604
 C2982 C 0.29385 0.79571 0.09626
 C2983 C 0.29938 0.80080 0.10817
 C2984 C 0.27323 0.77607 0.04979
 H2985 H 0.29969 0.79438 0.06156
 H2986 H 0.26650 0.77696 0.08312
 H2987 H 0.25737 0.76792 0.06227
 H2988 H 0.29052 0.78564 0.04061
 C2989 C 0.77463 0.28927 0.06777
 C2990 C 0.78684 0.28453 0.07284
 C2991 C 0.79390 0.27452 0.06599
 C2992 C 0.78880 0.26931 0.05409
 C2993 C 0.80653 0.30511 0.11697
 C2994 C 0.76952 0.28409 0.05587
 C2995 C 0.79218 0.29004 0.08499
 C2996 C 0.79666 0.29475 0.09512
 C2997 C 0.80194 0.30033 0.10693
 C2998 C 0.77657 0.27408 0.04886
 H2999 H 0.76907 0.29699 0.07301
 H3000 H 0.80339 0.27081 0.06981
 H3001 H 0.79453 0.26173 0.04885
 H3002 H 0.75999 0.28782 0.05221
 C3003 C 0.77316 0.79060 0.56843
 C3004 C 0.78533 0.78573 0.57348
 C3005 C 0.79217 0.77552 0.56672
 C3006 C 0.78691 0.77025 0.55490
 C3007 C 0.80523 0.80571 0.61780
 C3008 C 0.76789 0.78537 0.55661
 C3009 C 0.79079 0.79123 0.58558
 C3010 C 0.79535 0.79586 0.59571
 C3011 C 0.80068 0.80122 0.60760
 C3012 C 0.77474 0.77516 0.54968
 H3013 H 0.76775 0.79846 0.57361
 H3014 H 0.80160 0.77167 0.57053
 H3015 H 0.79248 0.76251 0.54972
 H3016 H 0.75840 0.78921 0.55296
 C3017 C 0.27053 0.71750 0.42708
 C3018 C 0.28250 0.71011 0.42689
 C3019 C 0.28940 0.70767 0.43879
 C3020 C 0.28442 0.71268 0.45083
 C3021 C 0.30299 0.69236 0.38187
 C3022 C 0.26553 0.72252 0.43912
 C3023 C 0.28785 0.70520 0.41448
 C3024 C 0.29249 0.70113 0.40415
 C3025 C 0.29808 0.69639 0.39210
 C3026 C 0.27246 0.72022 0.45112
 H3027 H 0.26513 0.71948 0.41792
 H3028 H 0.29866 0.70194 0.43876
 H3029 H 0.28989 0.71060 0.45992
 H3030 H 0.25638 0.72842 0.43900
 C3031 C 0.29102 0.20669 0.93820
 C3032 C 0.28887 0.21356 0.92624
 C3033 C 0.28149 0.22551 0.92624
 C3034 C 0.27623 0.23055 0.93816
 C3035 C 0.30767 0.19394 0.88129
 C3036 C 0.28577 0.21170 0.95012
 C3037 C 0.29410 0.20826 0.91395
 C3038 C 0.29842 0.20376 0.90366
 C3039 C 0.30343 0.19846 0.89160
 C3040 C 0.27827 0.22367 0.95022
 H3041 H 0.29675 0.19744 0.93831
 H3042 H 0.27973 0.23089 0.91703
 H3043 H 0.27037 0.23970 0.93790
 H3044 H 0.28766 0.20627 0.95927
 C3045 C 0.77057 0.71769 0.92614
 C3046 C 0.78238 0.71005 0.92600
 C3047 C 0.78919 0.70752 0.93794
 C3048 C 0.78429 0.71270 0.94994
 C3049 C 0.80268 0.69188 0.88106
 C3050 C 0.76564 0.72287 0.93814
 C3051 C 0.78767 0.70500 0.91363
 C3052 C 0.79226 0.70082 0.90331
 C3053 C 0.79781 0.69598 0.89128
 C3054 C 0.77249 0.72049 0.95017
 H3055 H 0.76524 0.71975 0.91695
 H3056 H 0.79833 0.70160 0.93795
 H3057 H 0.78969 0.71054 0.95905
 H3058 H 0.75663 0.72896 0.93797
 C3059 C 0.77163 0.21803 0.42529
 C3060 C 0.78330 0.21019 0.42490
 C3061 C 0.79025 0.20740 0.43669
 C3062 C 0.78563 0.21254 0.44882
 C3063 C 0.80276 0.19275 0.37932
 C3064 C 0.76699 0.22317 0.43741
 C3065 C 0.78832 0.20524 0.41237
 C3066 C 0.79270 0.20120 0.40191
 C3067 C 0.79803 0.19659 0.38971
 C3068 C 0.77398 0.22053 0.44931
 H3069 H 0.76620 0.22030 0.41621
 H3070 H 0.79928 0.20133 0.43650
 H3071 H 0.79114 0.21020 0.45783
 H3072 H 0.75809 0.22944 0.43745
 C3073 C 0.71048 0.29190 0.43793
 C3074 C 0.71713 0.28934 0.42590
 C3075 C 0.72870 0.28134 0.42580
 C3076 C 0.73357 0.27586 0.43768
 C3077 C 0.69710 0.30879 0.38144
 C3078 C 0.71532 0.28642 0.44981
 C3079 C 0.71194 0.29476 0.41366
 C3080 C 0.70742 0.29925 0.40345
 C3081 C 0.70194 0.30443 0.39155
 C3082 C 0.72689 0.27830 0.44981
 H3083 H 0.70153 0.29809 0.43812
 H3084 H 0.73390 0.27925 0.41654
 H3085 H 0.74240 0.26952 0.43735
 H3086 H 0.71006 0.28862 0.45901
 C3087 C 0.72609 0.77978 0.92587
 C3088 C 0.71433 0.78750 0.92571
 C3089 C 0.70745 0.79003 0.93762
 C3090 C 0.71227 0.78483 0.94964
 C3091 C 0.69507 0.80682 0.88081
 C3092 C 0.73093 0.77458 0.93788
 C3093 C 0.70925 0.79276 0.91334
 C3094 C 0.70489 0.79717 0.90302
 C3095 C 0.69965 0.80236 0.89101
 C3096 C 0.72405 0.77701 0.94990
 H3097 H 0.73147 0.77772 0.91670
 H3098 H 0.69836 0.79602 0.93762
 H3099 H 0.70684 0.78702 0.95874
 H3100 H 0.73993 0.76846 0.93773
 C3101 C 0.21965 0.27281 0.92638
 C3102 C 0.21219 0.28471 0.92651
 C3103 C 0.20987 0.29136 0.93858
 C3104 C 0.21503 0.28618 0.95046
 C3105 C 0.19283 0.30509 0.88213
 C3106 C 0.22480 0.26759 0.93826
 C3107 C 0.20696 0.29016 0.91429
 C3108 C 0.20255 0.29480 0.90410
 C3109 C 0.19734 0.30032 0.89222
 C3110 C 0.22259 0.27425 0.95043
 H3111 H 0.22153 0.26760 0.91710
 H3112 H 0.20408 0.30057 0.93880
 H3113 H 0.21300 0.29144 0.95968
 H3114 H 0.23072 0.25848 0.93790
 C3115 C 0.20630 0.78837 0.43879
 C3116 C 0.21321 0.78596 0.42688
 C3117 C 0.22510 0.77845 0.42702
 C3118 C 0.23005 0.77333 0.43902
 C3119 C 0.19399 0.80531 0.38204
 C3120 C 0.21122 0.78326 0.45080
 C3121 C 0.20806 0.79117 0.41454
 C3122 C 0.20367 0.79557 0.40424
 C3123 C 0.19847 0.80079 0.39224
 C3124 C 0.22314 0.77566 0.45104
 H3125 H 0.19711 0.79421 0.43881
 H3126 H 0.23051 0.77649 0.41785
 H3127 H 0.23916 0.76737 0.43886
 H3128 H 0.20578 0.78536 0.45991
 C3129 C 0.72232 0.71006 0.56909
 C3130 C 0.71017 0.71501 0.57412
 C3131 C 0.70318 0.72493 0.56710
 C3132 C 0.70831 0.72985 0.55507
 C3133 C 0.69113 0.69536 0.61899
 C3134 C 0.72746 0.71494 0.55707
 C3135 C 0.70485 0.70983 0.58644
 C3136 C 0.70048 0.70537 0.59673
 C3137 C 0.69542 0.70002 0.60875
 C3138 C 0.72049 0.72488 0.54990
 H3139 H 0.72783 0.70241 0.57447
 H3140 H 0.69374 0.72882 0.57088
 H3141 H 0.70264 0.73738 0.54971
 H3142 H 0.73696 0.71106 0.55346
 C3143 C 0.72512 0.20821 0.06794
 C3144 C 0.71297 0.21307 0.07308
 C3145 C 0.70588 0.22298 0.06616
 C3146 C 0.71089 0.22800 0.05412
 C3147 C 0.69377 0.19383 0.11804
 C3148 C 0.73014 0.21320 0.05591
 C3149 C 0.70777 0.20784 0.08541
 C3150 C 0.70341 0.20343 0.09573
 C3151 C 0.69825 0.19825 0.10778
 C3152 C 0.72307 0.22315 0.04885
 H3153 H 0.73071 0.20056 0.07323
 H3154 H 0.69644 0.22680 0.07003
 H3155 H 0.70513 0.23554 0.04885
 H3156 H 0.73964 0.20940 0.05221
 C3157 C 0.20651 0.70815 0.06288
 C3158 C 0.21362 0.71045 0.07468
 C3159 C 0.22562 0.71781 0.07437
 C3160 C 0.23045 0.72292 0.06230
 C3161 C 0.19397 0.69191 0.11973
 C3162 C 0.21131 0.71326 0.05081
 C3163 C 0.20850 0.70537 0.08711
 C3164 C 0.20405 0.70113 0.09746
 C3165 C 0.19868 0.69616 0.10950
 C3166 C 0.22331 0.72075 0.05039
 H3167 H 0.19723 0.70245 0.06300
 H3168 H 0.23118 0.71969 0.08346
 H3169 H 0.23962 0.72879 0.06232
 H3170 H 0.20568 0.71127 0.04179
 C3171 C 0.22688 0.21715 0.57498
 C3172 C 0.21500 0.20959 0.57509
 C3173 C 0.20822 0.20706 0.56314
 C3174 C 0.21323 0.21213 0.55114
 C3175 C 0.19495 0.19112 0.62004
 C3176 C 0.23192 0.22222 0.56298
 C3177 C 0.20968 0.20454 0.58746
 C3178 C 0.20512 0.20031 0.59777
 C3179 C 0.19968 0.19536 0.60980
 C3180 C 0.22512 0.21980 0.55092
 H3181 H 0.23219 0.21921 0.58418
 H3182 H 0.19904 0.20120 0.56311
 H3183 H 0.20787 0.20994 0.54200
 H3184 H 0.24100 0.22823 0.56316
   
