data_POSCAR
  _audit_creation_date              2014-09-24
  _audit_creation_method            'ToBaCCo'
  _symmetry_space_group_name_H-M    'P1'
  _symmetry_Int_Tables_number       1
  _symmetry_cell_setting            triclinic
  loop_
  _symmetry_equiv_pos_as_xyz
 x,y,z
_cell_length_a 99.4250
_cell_length_b 98.4929
_cell_length_c 101.1365
_cell_angle_alpha 89.952500
_cell_angle_beta 90.053700
_cell_angle_gamma 89.942200
loop_
  _atom_site_label
  _atom_site_type_symbol
  _atom_site_fract_x
  _atom_site_fract_y
  _atom_site_fract_z
N1 N 0.36004 0.32389 0.33582
 N2 N 0.35989 0.33275 0.32610
 C3 C 0.37036 0.33018 0.31798
 C4 C 0.37740 0.31907 0.32289
 C5 C 0.37053 0.31543 0.33425
 H6 H 0.37251 0.33575 0.30902
 H7 H 0.37288 0.30718 0.34090
 Cu8 Cu 0.34564 0.34638 0.32492
 Cu9 Cu 0.34640 0.32331 0.34959
 Cu10 Cu 0.32121 0.34741 0.34785
 N11 N 0.33159 0.36029 0.32444
 N12 N 0.32207 0.36037 0.33345
 C13 C 0.31338 0.37045 0.33085
 C14 C 0.31756 0.37715 0.31958
 C15 C 0.32924 0.37047 0.31578
 H16 H 0.30464 0.37276 0.33679
 H17 H 0.33535 0.37268 0.30720
 N18 N 0.32198 0.33352 0.36175
 N19 N 0.33166 0.32440 0.36256
 C20 C 0.32926 0.31628 0.37303
 C21 C 0.31746 0.32048 0.37906
 C22 C 0.31316 0.33144 0.37162
 H23 H 0.33545 0.30773 0.37587
 H24 H 0.30425 0.33748 0.37330
 H25 H 0.33129 0.33178 0.33837
 H26 H 0.34169 0.34363 0.34854
 N27 N 0.35922 0.82226 -0.16514
 N28 N 0.35986 0.83143 -0.17454
 C29 C 0.37046 0.82869 -0.18237
 C30 C 0.37689 0.81710 -0.17766
 C31 C 0.36935 0.81332 -0.16668
 H32 H 0.37320 0.83472 -0.19087
 H33 H 0.37110 0.80482 -0.16015
 Cu34 Cu 0.34683 0.84614 -0.17556
 Cu35 Cu 0.34547 0.82274 -0.15139
 Cu36 Cu 0.32227 0.84902 -0.15302
 N37 N 0.33353 0.86062 -0.17661
 N38 N 0.32418 0.86186 -0.16754
 C39 C 0.31650 0.87274 -0.17032
 C40 C 0.32119 0.87870 -0.18189
 C41 C 0.33205 0.87063 -0.18558
 H42 H 0.30797 0.87581 -0.16445
 H43 H 0.33849 0.87196 -0.19407
 N44 N 0.32197 0.83503 -0.13911
 N45 N 0.33080 0.82504 -0.13844
 C46 C 0.32785 0.81718 -0.12793
 C47 C 0.31658 0.82243 -0.12171
 C48 C 0.31314 0.83374 -0.12910
 H49 H 0.33334 0.80814 -0.12514
 H50 H 0.30485 0.84058 -0.12727
 H51 H 0.33112 0.83269 -0.16253
 H52 H 0.34231 0.84341 -0.15202
 N53 N 0.86015 0.32620 -0.16690
 N54 N 0.85947 0.33574 -0.17598
 C55 C 0.86958 0.33403 -0.18465
 C56 C 0.87707 0.32283 -0.18083
 C57 C 0.87080 0.31814 -0.16947
 H58 H 0.87139 0.34045 -0.19313
 H59 H 0.87355 0.30931 -0.16371
 Cu60 Cu 0.84530 0.34936 -0.17583
 Cu61 Cu 0.84677 0.32459 -0.15282
 Cu62 Cu 0.82130 0.34870 -0.15268
 N63 N 0.83124 0.36313 -0.17528
 N64 N 0.82181 0.36265 -0.16624
 C65 C 0.81320 0.37301 -0.16809
 C66 C 0.81743 0.38055 -0.17894
 C67 C 0.82899 0.37390 -0.18322
 H68 H 0.80454 0.37484 -0.16191
 H69 H 0.83525 0.37653 -0.19156
 N70 N 0.82243 0.33389 -0.13971
 N71 N 0.83218 0.32479 -0.13951
 C72 C 0.82998 0.31613 -0.12938
 C73 C 0.81822 0.31995 -0.12302
 C74 C 0.81378 0.33125 -0.12984
 H75 H 0.83628 0.30752 -0.12698
 H76 H 0.80492 0.33720 -0.12768
 H77 H 0.83141 0.33366 -0.16315
 H78 H 0.84186 0.34485 -0.15238
 N79 N 0.85816 0.82433 0.33185
 N80 N 0.85618 0.83218 0.32154
 C81 C 0.86611 0.83025 0.31275
 C82 C 0.87488 0.82058 0.31772
 C83 C 0.86947 0.81704 0.32993
 H84 H 0.86686 0.83566 0.30348
 H85 H 0.87340 0.80970 0.33688
 Cu86 Cu 0.84102 0.84443 0.32033
 Cu87 Cu 0.84571 0.82425 0.34681
 Cu88 Cu 0.82163 0.84976 0.34693
 N89 N 0.82977 0.86038 0.32180
 N90 N 0.82224 0.86258 0.33222
 C91 C 0.81549 0.87432 0.33054
 C92 C 0.81899 0.87982 0.31832
 C93 C 0.82814 0.87059 0.31312
 H94 H 0.80849 0.87839 0.33767
 H95 H 0.83327 0.87109 0.30373
 N96 N 0.82277 0.83572 0.36080
 N97 N 0.83201 0.82609 0.36087
 C98 C 0.82983 0.81787 0.37132
 C99 C 0.81861 0.82251 0.37808
 C100 C 0.81444 0.83385 0.37111
 H101 H 0.83565 0.80889 0.37356
 H102 H 0.80585 0.84020 0.37330
 H103 H 0.82895 0.83241 0.33765
 H104 H 0.84170 0.84464 0.34427
 N105 N 0.63900 0.67920 0.33405
 N106 N 0.63865 0.66984 0.32483
 C107 C 0.62818 0.67235 0.31671
 C108 C 0.62164 0.68395 0.32109
 C109 C 0.62883 0.68798 0.33215
 H110 H 0.62565 0.66634 0.30813
 H111 H 0.62680 0.69663 0.33840
 Cu112 Cu 0.65214 0.65555 0.32429
 Cu113 Cu 0.65266 0.67946 0.34779
 Cu114 Cu 0.67637 0.65359 0.34752
 N115 N 0.66551 0.64114 0.32411
 N116 N 0.67485 0.64029 0.33328
 C117 C 0.68283 0.62956 0.33067
 C118 C 0.67828 0.62338 0.31919
 C119 C 0.66726 0.63103 0.31533
 H120 H 0.69151 0.62670 0.33648
 H121 H 0.66099 0.62935 0.30676
 N122 N 0.67612 0.66812 0.36101
 N123 N 0.66719 0.67804 0.36089
 C124 C 0.66983 0.68662 0.37088
 C125 C 0.68096 0.68194 0.37770
 C126 C 0.68467 0.67014 0.37120
 H127 H 0.66404 0.69563 0.37310
 H128 H 0.69316 0.66370 0.37352
 H129 H 0.66758 0.66935 0.33731
 H130 H 0.65631 0.65872 0.34783
 N131 N 0.63995 0.17682 -0.16474
 N132 N 0.63968 0.16756 -0.17409
 C133 C 0.62905 0.16999 -0.18205
 C134 C 0.62232 0.18141 -0.17744
 C135 C 0.62957 0.18540 -0.16641
 H136 H 0.62653 0.16404 -0.19068
 H137 H 0.62750 0.19393 -0.16002
 Cu138 Cu 0.65343 0.15341 -0.17504
 Cu139 Cu 0.65378 0.17742 -0.15110
 Cu140 Cu 0.67832 0.15265 -0.15262
 N141 N 0.66743 0.13944 -0.17558
 N142 N 0.67711 0.13948 -0.16676
 C143 C 0.68554 0.12915 -0.16910
 C144 C 0.68103 0.12201 -0.18005
 C145 C 0.66941 0.12891 -0.18391
 H146 H 0.69426 0.12704 -0.16309
 H147 H 0.66291 0.12653 -0.19216
 N148 N 0.67801 0.16673 -0.13896
 N149 N 0.66869 0.17622 -0.13824
 C150 C 0.67130 0.18416 -0.12767
 C151 C 0.68284 0.17939 -0.12145
 C152 C 0.68674 0.16833 -0.12895
 H153 H 0.66522 0.19273 -0.12473
 H154 H 0.69527 0.16178 -0.12721
 H155 H 0.66827 0.16825 -0.16240
 H156 H 0.65787 0.15701 -0.15158
 N157 N 0.13904 0.67785 -0.16700
 N158 N 0.13931 0.66891 -0.17665
 C159 C 0.12945 0.67173 -0.18531
 C160 C 0.12254 0.68304 -0.18094
 C161 C 0.12885 0.68664 -0.16921
 H162 H 0.12736 0.66593 -0.19413
 H163 H 0.12639 0.69515 -0.16291
 Cu164 Cu 0.15250 0.65443 -0.17720
 Cu165 Cu 0.15233 0.67747 -0.15269
 Cu166 Cu 0.17595 0.65137 -0.15368
 N167 N 0.16568 0.63990 -0.17769
 N168 N 0.17479 0.63863 -0.16836
 C169 C 0.18268 0.62787 -0.17112
 C170 C 0.17829 0.62212 -0.18287
 C171 C 0.16747 0.63005 -0.18672
 H172 H 0.19114 0.62465 -0.16516
 H173 H 0.16133 0.62870 -0.19544
 N174 N 0.17553 0.66523 -0.13966
 N175 N 0.16667 0.67521 -0.13922
 C176 C 0.16938 0.68304 -0.12860
 C177 C 0.18050 0.67775 -0.12205
 C178 C 0.18404 0.66644 -0.12940
 H179 H 0.16377 0.69204 -0.12595
 H180 H 0.19226 0.65955 -0.12746
 H181 H 0.16734 0.66793 -0.16327
 H182 H 0.15581 0.65689 -0.15347
 N183 N 0.13901 0.17557 0.33134
 N184 N 0.14022 0.16573 0.32266
 C185 C 0.13025 0.16677 0.31370
 C186 C 0.12232 0.17787 0.31691
 C187 C 0.12823 0.18320 0.32820
 H188 H 0.12881 0.15988 0.30552
 H189 H 0.12503 0.19203 0.33369
 Cu190 Cu 0.15473 0.15252 0.32389
 Cu191 Cu 0.15139 0.17772 0.34614
 Cu192 Cu 0.17684 0.15382 0.34897
 N193 N 0.16899 0.13911 0.32573
 N194 N 0.17764 0.13975 0.33553
 C195 C 0.18657 0.12956 0.33438
 C196 C 0.18335 0.12205 0.32326
 C197 C 0.17210 0.12841 0.31802
 H198 H 0.19477 0.12774 0.34118
 H199 H 0.16675 0.12562 0.30913
 N200 N 0.17443 0.16880 0.36158
 N201 N 0.16491 0.17807 0.36042
 C202 C 0.16613 0.18704 0.37041
 C203 C 0.17688 0.18316 0.37827
 C204 C 0.18189 0.17157 0.37234
 H205 H 0.15959 0.19567 0.37196
 H206 H 0.19050 0.16571 0.37553
 H207 H 0.16765 0.16843 0.33731
 H208 H 0.15635 0.15743 0.34745
 N209 N 0.63868 0.32263 0.66546
 N210 N 0.63847 0.33208 0.67460
 C211 C 0.62807 0.32969 0.68283
 C212 C 0.62144 0.31808 0.67859
 C213 C 0.62850 0.31394 0.66751
 H214 H 0.62562 0.33582 0.69136
 H215 H 0.62639 0.30527 0.66133
 Cu216 Cu 0.65201 0.34638 0.67473
 Cu217 Cu 0.65218 0.32200 0.65169
 Cu218 Cu 0.67688 0.34676 0.65186
 N219 N 0.66617 0.36000 0.67496
 N220 N 0.67575 0.36024 0.66601
 C221 C 0.68408 0.37070 0.66861
 C222 C 0.67951 0.37732 0.67984
 C223 C 0.66812 0.37021 0.68357
 H224 H 0.69294 0.37314 0.66289
 H225 H 0.66168 0.37238 0.69191
 N226 N 0.67610 0.33214 0.63843
 N227 N 0.66656 0.32285 0.63849
 C228 C 0.66847 0.31431 0.62833
 C229 C 0.67981 0.31825 0.62143
 C230 C 0.68439 0.32968 0.62812
 H231 H 0.66195 0.30588 0.62610
 H232 H 0.69313 0.33571 0.62572
 H233 H 0.66730 0.33181 0.66236
 H234 H 0.65670 0.34266 0.65134
 N235 N 0.64148 0.82559 1.16571
 N236 N 0.64245 0.83466 1.17518
 C237 C 0.63246 0.83274 1.18392
 C238 C 0.62468 0.82189 1.17976
 C239 C 0.63073 0.81761 1.16809
 H240 H 0.63090 0.83892 1.19260
 H241 H 0.62763 0.80932 1.16179
 Cu242 Cu 0.65647 0.84836 1.17512
 Cu243 Cu 0.65403 0.82536 1.15078
 Cu244 Cu 0.68291 0.84472 1.15532
 N245 N 0.67026 0.86231 1.17414
 N246 N 0.68067 0.86074 1.16632
 C247 C 0.68924 0.87113 1.16808
 C248 C 0.68392 0.87980 1.17753
 C249 C 0.67181 0.87384 1.18113
 H250 H 0.69873 0.87210 1.16298
 H251 H 0.66488 0.87733 1.18862
 N252 N 0.68098 0.83121 1.14118
 N253 N 0.67002 0.82395 1.13918
 C254 C 0.67187 0.81618 1.12834
 C255 C 0.68462 0.81875 1.12327
 C256 C 0.69001 0.82835 1.13173
 H257 H 0.66447 0.80922 1.12443
 H258 H 0.69969 0.83325 1.13093
 H259 H 0.66894 0.83089 1.16313
 H260 H 0.66271 0.84471 1.15211
 N261 N 0.13985 0.32451 1.16766
 N262 N 0.14107 0.33440 1.17628
 C263 C 0.13108 0.33345 1.18522
 C264 C 0.12315 0.32235 1.18205
 C265 C 0.12907 0.31693 1.17082
 H266 H 0.12960 0.34042 1.19333
 H267 H 0.12586 0.30808 1.16536
 Cu268 Cu 0.15546 0.34768 1.17485
 Cu269 Cu 0.15227 0.32224 1.15292
 Cu270 Cu 0.17800 0.34584 1.15019
 N271 N 0.16995 0.36083 1.17320
 N272 N 0.17870 0.36006 1.16351
 C273 C 0.18752 0.37035 1.16459
 C274 C 0.18415 0.37807 1.17557
 C275 C 0.17291 0.37166 1.18078
 H276 H 0.19572 0.37209 1.15780
 H277 H 0.16729 0.37461 1.18945
 N278 N 0.17560 0.33071 1.13769
 N279 N 0.16583 0.32172 1.13872
 C280 C 0.16692 0.31272 1.12876
 C281 C 0.17790 0.31620 1.12104
 C282 C 0.18315 0.32767 1.12704
 H283 H 0.16014 0.30431 1.12718
 H284 H 0.19191 0.33333 1.12398
 H285 H 0.16852 0.33152 1.16188
 H286 H 0.15750 0.34247 1.15137
 N287 N 0.13976 0.82180 0.66575
 N288 N 0.13965 0.83189 0.67424
 C289 C 0.12955 0.82990 0.68294
 C290 C 0.12306 0.81788 0.67973
 C291 C 0.12984 0.81307 0.66875
 H292 H 0.12725 0.83654 0.69114
 H293 H 0.12765 0.80393 0.66325
 Cu294 Cu 0.15299 0.84639 0.67330
 Cu295 Cu 0.15261 0.82065 0.65137
 Cu296 Cu 0.17726 0.84529 0.64986
 N297 N 0.16750 0.85970 0.67265
 N298 N 0.17696 0.85913 0.66360
 C299 C 0.18580 0.86925 0.66566
 C300 C 0.18169 0.87663 0.67660
 C301 C 0.17000 0.87026 0.68076
 H302 H 0.19455 0.87112 0.65960
 H303 H 0.16394 0.87292 0.68924
 N304 N 0.17584 0.83045 0.63683
 N305 N 0.16640 0.82109 0.63747
 C306 C 0.16795 0.81240 0.62734
 C307 C 0.17893 0.81640 0.61987
 C308 C 0.18368 0.82794 0.62624
 H309 H 0.16148 0.80381 0.62553
 H310 H 0.19222 0.83404 0.62340
 H311 H 0.16777 0.83091 0.66135
 H312 H 0.15694 0.84122 0.65000
 N313 N 0.36102 0.67511 0.66704
 N314 N 0.35967 0.66555 0.67600
 C315 C 0.36944 0.66687 0.68512
 C316 C 0.37741 0.67785 0.68169
 C317 C 0.37174 0.68282 0.67013
 H318 H 0.37073 0.66028 0.69357
 H319 H 0.37498 0.69158 0.66452
 Cu320 Cu 0.34537 0.65221 0.67477
 Cu321 Cu 0.34848 0.67714 0.65234
 Cu322 Cu 0.32073 0.65577 0.65238
 N323 N 0.33074 0.63922 0.67359
 N324 N 0.32107 0.64066 0.66483
 C325 C 0.31207 0.63058 0.66640
 C326 C 0.31640 0.62230 0.67666
 C327 C 0.32828 0.62813 0.68097
 H328 H 0.30308 0.62939 0.66051
 H329 H 0.33451 0.62474 0.68909
 N330 N 0.32394 0.66950 0.63853
 N331 N 0.33452 0.67758 0.63849
 C332 C 0.33381 0.68582 0.62788
 C333 C 0.32227 0.68273 0.62083
 C334 C 0.31629 0.67230 0.62787
 H335 H 0.34118 0.69347 0.62542
 H336 H 0.30694 0.66725 0.62552
 H337 H 0.33266 0.66951 0.66281
 H338 H 0.34137 0.65726 0.65161
 N339 N 0.36098 0.17599 1.16485
 N340 N 0.36020 0.16799 1.17523
 C341 C 0.37038 0.17089 1.18356
 C342 C 0.37796 0.18130 1.17810
 C343 C 0.37167 0.18423 1.16619
 H344 H 0.37199 0.16596 1.19298
 H345 H 0.37463 0.19176 1.15897
 Cu346 Cu 0.34583 0.15468 1.17684
 Cu347 Cu 0.34821 0.17493 1.15021
 Cu348 Cu 0.31853 0.15839 1.15800
 N349 N 0.33178 0.14088 1.17660
 N350 N 0.32100 0.14262 1.16928
 C351 C 0.31258 0.13214 1.17110
 C352 C 0.31838 0.12318 1.18000
 C353 C 0.33061 0.12912 1.18333
 H354 H 0.30288 0.13127 1.16634
 H355 H 0.33808 0.12520 1.19010
 N356 N 0.32043 0.17035 1.14261
 N357 N 0.33181 0.17627 1.13926
 C358 C 0.33001 0.18286 1.12770
 C359 C 0.31684 0.18088 1.12352
 C360 C 0.31111 0.17292 1.13332
 H361 H 0.33779 0.18849 1.12267
 H362 H 0.30100 0.16893 1.13360
 H363 H 0.33385 0.17185 1.16385
 H364 H 0.33840 0.15655 1.15395
 N365 N 0.85998 0.67535 1.16831
 N366 N 0.85770 0.66671 1.17794
 C367 C 0.86756 0.66770 1.18698
 C368 C 0.87660 0.67756 1.18288
 C369 C 0.87140 0.68218 1.17093
 H370 H 0.86802 0.66169 1.19591
 H371 H 0.87548 0.69004 1.16465
 Cu372 Cu 0.84201 0.65505 1.17795
 Cu373 Cu 0.84764 0.67739 1.15341
 Cu374 Cu 0.81953 0.65642 1.15335
 N375 N 0.82926 0.64046 1.17504
 N376 N 0.82030 0.64110 1.16551
 C377 C 0.81211 0.63026 1.16634
 C378 C 0.81624 0.62232 1.17693
 C379 C 0.82720 0.62913 1.18217
 H380 H 0.80369 0.62842 1.15981
 H381 H 0.83292 0.62635 1.19086
 N382 N 0.82310 0.66996 1.13944
 N383 N 0.83382 0.67785 1.13936
 C384 C 0.83326 0.68600 1.12866
 C385 C 0.82166 0.68305 1.12161
 C386 C 0.81550 0.67280 1.12876
 H387 H 0.84075 0.69352 1.12619
 H388 H 0.80607 0.66789 1.12649
 H389 H 0.83074 0.67126 1.16311
 H390 H 0.84011 0.65772 1.15414
 N391 N 0.86167 0.17839 0.66618
 N392 N 0.86145 0.16939 0.67576
 C393 C 0.87176 0.17184 0.68407
 C394 C 0.87876 0.18305 0.67949
 C395 C 0.87204 0.18692 0.66809
 H396 H 0.87384 0.16610 0.69295
 H397 H 0.87448 0.19535 0.66168
 Cu398 Cu 0.84758 0.15548 0.67653
 Cu399 Cu 0.84826 0.17871 0.65222
 Cu400 Cu 0.82231 0.15534 0.65429
 N401 N 0.83414 0.14117 0.67619
 N402 N 0.82428 0.14101 0.66753
 C403 C 0.81633 0.13021 0.66996
 C404 C 0.82149 0.12321 0.68077
 C405 C 0.83284 0.13048 0.68437
 H406 H 0.80730 0.12784 0.66447
 H407 H 0.83965 0.12823 0.69240
 N408 N 0.82375 0.16876 0.63978
 N409 N 0.83374 0.17755 0.63908
 C410 C 0.83188 0.18562 0.62852
 C411 C 0.82016 0.18182 0.62218
 C412 C 0.81529 0.17100 0.62954
 H413 H 0.83855 0.19378 0.62569
 H414 H 0.80610 0.16544 0.62779
 H415 H 0.83313 0.17063 0.66357
 H416 H 0.84267 0.15830 0.65315
 N417 N 0.32303 0.35828 0.66581
 N418 N 0.33292 0.35866 0.67443
 C419 C 0.33058 0.36885 0.68306
 C420 C 0.31853 0.37506 0.67964
 C421 C 0.31410 0.36807 0.66864
 H422 H 0.33701 0.37141 0.69132
 H423 H 0.30508 0.37004 0.66298
 Cu424 Cu 0.34761 0.34549 0.67358
 Cu425 Cu 0.32223 0.34529 0.65148
 Cu426 Cu 0.34747 0.32129 0.64984
 N427 N 0.36125 0.33123 0.67293
 N428 N 0.36111 0.32192 0.66362
 C429 C 0.37136 0.31325 0.66559
 C430 C 0.37837 0.31723 0.67678
 C431 C 0.37165 0.32874 0.68116
 H432 H 0.37348 0.30464 0.65933
 H433 H 0.37397 0.33469 0.68983
 N434 N 0.33274 0.32232 0.63682
 N435 N 0.32304 0.33141 0.63762
 C436 C 0.31423 0.32935 0.62773
 C437 C 0.31855 0.31842 0.62029
 C438 C 0.33037 0.31423 0.62633
 H439 H 0.30531 0.33538 0.62604
 H440 H 0.33659 0.30572 0.62347
 H441 H 0.33288 0.33021 0.66136
 H442 H 0.34275 0.34163 0.65021
 N443 N 0.32392 0.86013 0.16589
 N444 N 0.33383 0.85913 0.17444
 C445 C 0.33258 0.86900 0.18355
 C446 C 0.32130 0.87665 0.18056
 C447 C 0.31606 0.87072 0.16925
 H448 H 0.33944 0.87057 0.19170
 H449 H 0.30707 0.87373 0.16398
 Cu450 Cu 0.34743 0.84507 0.17293
 Cu451 Cu 0.32187 0.84742 0.15124
 Cu452 Cu 0.34586 0.82192 0.14864
 N453 N 0.36067 0.83066 0.17146
 N454 N 0.35999 0.82157 0.16198
 C455 C 0.37027 0.81276 0.16332
 C456 C 0.37784 0.81656 0.17421
 C457 C 0.37141 0.82796 0.17913
 H458 H 0.37214 0.80431 0.15677
 H459 H 0.37423 0.83375 0.18776
 N460 N 0.33080 0.82397 0.13611
 N461 N 0.32160 0.83358 0.13714
 C462 C 0.31261 0.83212 0.12727
 C463 C 0.31636 0.82110 0.11961
 C464 C 0.32794 0.81620 0.12554
 H465 H 0.30402 0.83866 0.12570
 H466 H 0.33373 0.80746 0.12250
 H467 H 0.33156 0.83137 0.16034
 H468 H 0.34200 0.84255 0.14955
 N469 N 0.82262 0.36029 0.16634
 N470 N 0.83255 0.36054 0.17493
 C471 C 0.83025 0.37060 0.18370
 C472 C 0.81820 0.37688 0.18043
 C473 C 0.81370 0.37004 0.16935
 H474 H 0.83671 0.37302 0.19198
 H475 H 0.80463 0.37209 0.16378
 Cu476 Cu 0.84724 0.34740 0.17393
 Cu477 Cu 0.82181 0.34748 0.15182
 Cu478 Cu 0.84699 0.32343 0.15002
 N479 N 0.86082 0.33308 0.17316
 N480 N 0.86059 0.32385 0.16380
 C481 C 0.87078 0.31509 0.16567
 C482 C 0.87786 0.31895 0.17684
 C483 C 0.87123 0.33047 0.18134
 H484 H 0.87286 0.30652 0.15932
 H485 H 0.87364 0.33634 0.19005
 N486 N 0.83233 0.32463 0.13699
 N487 N 0.82265 0.33374 0.13779
 C488 C 0.81394 0.33180 0.12778
 C489 C 0.81834 0.32093 0.12028
 C490 C 0.83006 0.31666 0.12641
 H491 H 0.80506 0.33788 0.12606
 H492 H 0.83631 0.30817 0.12354
 H493 H 0.83237 0.33235 0.16161
 H494 H 0.84227 0.34383 0.15054
 N495 N 0.82130 0.85902 0.66685
 N496 N 0.83139 0.85955 0.67524
 C497 C 0.82944 0.87015 0.68349
 C498 C 0.81744 0.87649 0.68006
 C499 C 0.81265 0.86913 0.66942
 H500 H 0.83608 0.87288 0.69152
 H501 H 0.80352 0.87097 0.66390
 Cu502 Cu 0.84582 0.84606 0.67455
 Cu503 Cu 0.81960 0.84504 0.65347
 Cu504 Cu 0.84519 0.82165 0.65123
 N505 N 0.85995 0.83229 0.67334
 N506 N 0.85969 0.82290 0.66410
 C507 C 0.87023 0.81451 0.66572
 C508 C 0.87759 0.81881 0.67656
 C509 C 0.87077 0.83018 0.68113
 H510 H 0.87228 0.80581 0.65953
 H511 H 0.87327 0.83621 0.68971
 N512 N 0.83083 0.82308 0.63785
 N513 N 0.82094 0.83194 0.63889
 C514 C 0.81249 0.83037 0.62861
 C515 C 0.81725 0.81999 0.62068
 C516 C 0.82895 0.81563 0.62683
 H517 H 0.80357 0.83642 0.62698
 H518 H 0.83544 0.80744 0.62368
 H519 H 0.83083 0.83039 0.66316
 H520 H 0.84005 0.84202 0.65162
 N521 N 0.67446 0.64144 0.66487
 N522 N 0.66493 0.64221 0.67384
 C523 C 0.66649 0.63201 0.68257
 C524 C 0.67759 0.62439 0.67892
 C525 C 0.68238 0.63069 0.66759
 H526 H 0.66001 0.63025 0.69097
 H527 H 0.69116 0.62787 0.66192
 Cu528 Cu 0.65149 0.65656 0.67341
 Cu529 Cu 0.67617 0.65478 0.65066
 Cu530 Cu 0.65249 0.68067 0.65005
 N531 N 0.63813 0.67100 0.67279
 N532 N 0.63862 0.68040 0.66360
 C533 C 0.62836 0.68911 0.66531
 C534 C 0.62095 0.68501 0.67621
 C535 C 0.62750 0.67344 0.68070
 H536 H 0.62644 0.69776 0.65901
 H537 H 0.62480 0.66728 0.68913
 N538 N 0.66721 0.67926 0.63714
 N539 N 0.67612 0.66932 0.63716
 C540 C 0.68477 0.67128 0.62706
 C541 C 0.68117 0.68309 0.62047
 C542 C 0.66999 0.68782 0.62715
 H543 H 0.69325 0.66479 0.62483
 H544 H 0.66424 0.69683 0.62483
 H545 H 0.66718 0.67046 0.66077
 H546 H 0.65612 0.65993 0.64995
 N547 N 0.67704 0.14349 0.16525
 N548 N 0.66746 0.14279 0.17417
 C549 C 0.66966 0.13187 0.18192
 C550 C 0.68130 0.12543 0.17767
 C551 C 0.68567 0.13313 0.16705
 H552 H 0.66348 0.12903 0.19026
 H553 H 0.69451 0.13142 0.16107
 Cu554 Cu 0.65339 0.15659 0.17516
 Cu555 Cu 0.67810 0.15812 0.15239
 Cu556 Cu 0.65094 0.17998 0.15094
 N557 N 0.63881 0.16988 0.17480
 N558 N 0.63792 0.17881 0.16518
 C559 C 0.62726 0.18689 0.16729
 C560 C 0.62103 0.18290 0.17889
 C561 C 0.62863 0.17199 0.18338
 H562 H 0.62432 0.19513 0.16085
 H563 H 0.62704 0.16624 0.19234
 N564 N 0.66521 0.17972 0.13751
 N565 N 0.67562 0.17143 0.13806
 C566 C 0.68374 0.17396 0.12768
 C567 C 0.67823 0.18446 0.12034
 C568 C 0.66648 0.18783 0.12688
 H569 H 0.69313 0.16878 0.12579
 H570 H 0.65942 0.19568 0.12411
 H571 H 0.66657 0.17273 0.16206
 H572 H 0.65756 0.15992 0.15169
 N573 N 0.17418 0.64075 0.16596
 N574 N 0.16465 0.64156 0.17493
 C575 C 0.16633 0.63155 0.18383
 C576 C 0.17752 0.62401 0.18032
 C577 C 0.18224 0.63014 0.16886
 H578 H 0.15987 0.62985 0.19225
 H579 H 0.19105 0.62731 0.16325
 Cu580 Cu 0.15108 0.65575 0.17438
 Cu581 Cu 0.17571 0.65395 0.15157
 Cu582 Cu 0.15158 0.67947 0.15073
 N583 N 0.13742 0.66988 0.17358
 N584 N 0.13774 0.67918 0.16428
 C585 C 0.12744 0.68785 0.16600
 C586 C 0.12020 0.68379 0.17700
 C587 C 0.12684 0.67231 0.18155
 H588 H 0.12538 0.69644 0.15967
 H589 H 0.12431 0.66632 0.19015
 N590 N 0.16628 0.67815 0.13784
 N591 N 0.17539 0.66839 0.13790
 C592 C 0.18402 0.67053 0.12780
 C593 C 0.18017 0.68226 0.12121
 C594 C 0.16888 0.68673 0.12785
 H595 H 0.19265 0.66425 0.12559
 H596 H 0.16296 0.69562 0.12551
 H597 H 0.16657 0.66963 0.16149
 H598 H 0.15563 0.65875 0.15089
 N599 N 0.17516 0.14024 0.66496
 N600 N 0.16599 0.14017 0.67432
 C601 C 0.16848 0.12971 0.68259
 C602 C 0.17987 0.12294 0.67819
 C603 C 0.18378 0.12993 0.66697
 H604 H 0.16270 0.12741 0.69135
 H605 H 0.19231 0.12771 0.66071
 Cu606 Cu 0.15215 0.15422 0.67507
 Cu607 Cu 0.17562 0.15384 0.65101
 Cu608 Cu 0.15138 0.17900 0.65218
 N609 N 0.13847 0.16845 0.67546
 N610 N 0.13845 0.17814 0.66652
 C611 C 0.12845 0.18691 0.66912
 C612 C 0.12176 0.18257 0.68033
 C613 C 0.12836 0.17076 0.68408
 H614 H 0.12620 0.19579 0.66324
 H615 H 0.12617 0.16452 0.69261
 N616 N 0.16525 0.17819 0.63838
 N617 N 0.17441 0.16851 0.63780
 C618 C 0.18240 0.17078 0.62727
 C619 C 0.17810 0.18250 0.62098
 C620 C 0.16720 0.18690 0.62831
 H621 H 0.19091 0.16455 0.62455
 H622 H 0.16109 0.19576 0.62640
 H623 H 0.16673 0.16896 0.66203
 H624 H 0.15539 0.15838 0.65151
 N625 N 0.32494 0.64048 0.33255
 N626 N 0.33441 0.64065 0.32351
 C627 C 0.33234 0.63049 0.31492
 C628 C 0.32088 0.62349 0.31860
 C629 C 0.31645 0.63012 0.32994
 H630 H 0.33876 0.62835 0.30658
 H631 H 0.30765 0.62771 0.33575
 Cu632 Cu 0.34838 0.65430 0.32336
 Cu633 Cu 0.32455 0.65398 0.34677
 Cu634 Cu 0.34981 0.67858 0.34636
 N635 N 0.36240 0.66792 0.32311
 N636 N 0.36299 0.67753 0.33207
 C637 C 0.37343 0.68579 0.32927
 C638 C 0.37966 0.68109 0.31787
 C639 C 0.37237 0.66970 0.31433
 H640 H 0.37609 0.69470 0.33493
 H641 H 0.37418 0.66318 0.30594
 N642 N 0.33559 0.67787 0.35995
 N643 N 0.32605 0.66854 0.36021
 C644 C 0.31794 0.67097 0.37063
 C645 C 0.32253 0.68242 0.37718
 C646 C 0.33374 0.68648 0.37011
 H647 H 0.30916 0.66503 0.37311
 H648 H 0.34013 0.69507 0.37224
 H649 H 0.33408 0.66924 0.33641
 H650 H 0.34489 0.65811 0.34688
 N651 N 0.32421 0.13846 0.83348
 N652 N 0.33384 0.13886 0.82459
 C653 C 0.33191 0.12882 0.81578
 C654 C 0.32049 0.12167 0.81933
 C655 C 0.31589 0.12807 0.83066
 H656 H 0.33834 0.12685 0.80739
 H657 H 0.30694 0.12559 0.83623
 Cu658 Cu 0.34793 0.15256 0.82507
 Cu659 Cu 0.32282 0.15189 0.84763
 Cu660 Cu 0.34713 0.17704 0.84805
 N661 N 0.36134 0.16695 0.82544
 N662 N 0.36090 0.17647 0.83451
 C663 C 0.37107 0.18520 0.83260
 C664 C 0.37838 0.18102 0.82170
 C665 C 0.37189 0.16935 0.81740
 H666 H 0.37301 0.19392 0.83878
 H667 H 0.37453 0.16317 0.80897
 N668 N 0.33251 0.17609 0.86100
 N669 N 0.32326 0.16650 0.86106
 C670 C 0.31470 0.16887 0.87117
 C671 C 0.31877 0.18057 0.87767
 C672 C 0.33010 0.18478 0.87094
 H673 H 0.30602 0.16271 0.87348
 H674 H 0.33624 0.19352 0.87320
 H675 H 0.33232 0.16700 0.83721
 H676 H 0.34296 0.15635 0.84840
 N677 N 0.82460 0.64000 0.83158
 N678 N 0.83425 0.64128 0.82281
 C679 C 0.83310 0.63129 0.81380
 C680 C 0.82212 0.62328 0.81704
 C681 C 0.81698 0.62918 0.82843
 H682 H 0.83983 0.62995 0.80552
 H683 H 0.80833 0.62591 0.83405
 Cu684 Cu 0.84745 0.65582 0.82398
 Cu685 Cu 0.82270 0.65240 0.84648
 Cu686 Cu 0.84656 0.67786 0.84933
 N687 N 0.86090 0.67005 0.82590
 N688 N 0.86050 0.67857 0.83586
 C689 C 0.87081 0.68733 0.83485
 C690 C 0.87816 0.68419 0.82360
 C691 C 0.87152 0.67311 0.81819
 H692 H 0.87276 0.69540 0.84182
 H693 H 0.87414 0.66773 0.80925
 N694 N 0.83168 0.67555 0.86198
 N695 N 0.82252 0.66594 0.86085
 C696 C 0.81365 0.66717 0.87085
 C697 C 0.81741 0.67807 0.87868
 C698 C 0.82890 0.68312 0.87271
 H699 H 0.80512 0.66057 0.87236
 H700 H 0.83469 0.69182 0.87583
 H701 H 0.83194 0.66886 0.83770
 H702 H 0.84286 0.65724 0.84761
 N703 N 0.82578 0.14059 0.33521
 N704 N 0.83484 0.14157 0.32581
 C705 C 0.83250 0.13198 0.31664
 C706 C 0.82140 0.12447 0.32051
 C707 C 0.81742 0.13024 0.33241
 H708 H 0.83856 0.13048 0.30790
 H709 H 0.80900 0.12727 0.33852
 Cu710 Cu 0.84921 0.15490 0.32665
 Cu711 Cu 0.82578 0.15275 0.35045
 Cu712 Cu 0.84343 0.18257 0.34496
 N713 N 0.86180 0.16998 0.32691
 N714 N 0.85943 0.18081 0.33409
 C715 C 0.86926 0.18994 0.33210
 C716 C 0.87841 0.18456 0.32317
 C717 C 0.87329 0.17182 0.32010
 H718 H 0.86954 0.19980 0.33675
 H719 H 0.87744 0.16451 0.31327
 N720 N 0.83028 0.18038 0.35931
 N721 N 0.82378 0.16898 0.36169
 C722 C 0.81608 0.17064 0.37253
 C723 C 0.81786 0.18377 0.37723
 C724 C 0.82697 0.18958 0.36855
 H725 H 0.80964 0.16287 0.37662
 H726 H 0.83121 0.19966 0.36907
 H727 H 0.83097 0.16725 0.33747
 H728 H 0.84462 0.16241 0.34925
 N729 N 0.67546 0.36039 0.33263
 N730 N 0.66581 0.35942 0.32380
 C731 C 0.66727 0.36945 0.31483
 C732 C 0.67838 0.37715 0.31830
 C733 C 0.68331 0.37107 0.32965
 H734 H 0.66064 0.37115 0.30650
 H735 H 0.69209 0.37407 0.33525
 Cu736 Cu 0.65218 0.34530 0.32517
 Cu737 Cu 0.67730 0.34768 0.34728
 Cu738 Cu 0.65331 0.32228 0.34972
 N739 N 0.63884 0.33089 0.32652
 N740 N 0.63934 0.32196 0.33617
 C741 C 0.62906 0.31320 0.33486
 C742 C 0.62164 0.31678 0.32377
 C743 C 0.62819 0.32809 0.31874
 H744 H 0.62711 0.30488 0.34156
 H745 H 0.62550 0.33379 0.30999
 N746 N 0.66825 0.32431 0.36244
 N747 N 0.67746 0.33389 0.36139
 C748 C 0.68643 0.33245 0.37128
 C749 C 0.68269 0.32147 0.37898
 C750 C 0.67110 0.31657 0.37307
 H751 H 0.69501 0.33898 0.37283
 H752 H 0.66531 0.30784 0.37616
 H753 H 0.66774 0.33154 0.33816
 H754 H 0.65712 0.34283 0.34868
 N755 N 0.67546 0.86046 0.83330
 N756 N 0.66565 0.86007 0.82457
 C757 C 0.66732 0.87019 0.81580
 C758 C 0.67878 0.87739 0.81913
 C759 C 0.68367 0.87093 0.83035
 H760 H 0.66065 0.87219 0.80759
 H761 H 0.69268 0.87346 0.83582
 Cu762 Cu 0.65164 0.84631 0.82516
 Cu763 Cu 0.67697 0.84709 0.84755
 Cu764 Cu 0.65256 0.82201 0.84829
 N765 N 0.63823 0.83191 0.82565
 N766 N 0.63873 0.82246 0.83479
 C767 C 0.62857 0.81368 0.83295
 C768 C 0.62123 0.81777 0.82202
 C769 C 0.62766 0.82944 0.81763
 H770 H 0.62667 0.80498 0.83918
 H771 H 0.62499 0.83554 0.80914
 N772 N 0.66723 0.82304 0.86119
 N773 N 0.67659 0.83253 0.86111
 C774 C 0.68520 0.83014 0.87121
 C775 C 0.68103 0.81853 0.87784
 C776 C 0.66960 0.81442 0.87121
 H777 H 0.69396 0.83622 0.87343
 H778 H 0.66338 0.80578 0.87357
 H779 H 0.66736 0.83197 0.83732
 H780 H 0.65686 0.84272 0.84848
 N781 N 0.17735 0.35988 0.83447
 N782 N 0.16851 0.35924 0.82482
 C783 C 0.17102 0.36942 0.81619
 C784 C 0.18207 0.37673 0.82074
 C785 C 0.18568 0.37034 0.83239
 H786 H 0.16535 0.37128 0.80725
 H787 H 0.19377 0.37308 0.83899
 Cu788 Cu 0.15476 0.34502 0.82476
 Cu789 Cu 0.17801 0.34708 0.84896
 Cu790 Cu 0.15336 0.32260 0.85013
 N791 N 0.14044 0.33146 0.82611
 N792 N 0.14005 0.32293 0.83610
 C793 C 0.12938 0.31472 0.83476
 C794 C 0.12259 0.31815 0.82328
 C795 C 0.12992 0.32890 0.81804
 H796 H 0.12679 0.30684 0.84174
 H797 H 0.12783 0.33437 0.80900
 N798 N 0.16775 0.32392 0.86343
 N799 N 0.17717 0.33330 0.86291
 C800 C 0.18576 0.33147 0.87303
 C801 C 0.18158 0.32037 0.88033
 C802 C 0.17008 0.31586 0.87396
 H803 H 0.19444 0.33775 0.87493
 H804 H 0.16405 0.30715 0.87662
 H805 H 0.16873 0.33106 0.83928
 H806 H 0.15756 0.34300 0.84861
 N807 N 0.17520 0.85997 0.33190
 N808 N 0.16523 0.85906 0.32343
 C809 C 0.16624 0.86925 0.31459
 C810 C 0.17746 0.87699 0.31769
 C811 C 0.18288 0.87072 0.32876
 H812 H 0.15926 0.87094 0.30655
 H813 H 0.19178 0.87368 0.33417
 Cu814 Cu 0.15192 0.84466 0.32488
 Cu815 Cu 0.17747 0.84729 0.34651
 Cu816 Cu 0.15373 0.82173 0.34948
 N817 N 0.13875 0.83014 0.32657
 N818 N 0.13953 0.82124 0.33623
 C819 C 0.12933 0.81235 0.33511
 C820 C 0.12169 0.81582 0.32414
 C821 C 0.12801 0.82719 0.31897
 H822 H 0.12761 0.80401 0.34184
 H823 H 0.12512 0.83282 0.31025
 N824 N 0.16887 0.82391 0.36189
 N825 N 0.17801 0.83353 0.36065
 C826 C 0.18711 0.83222 0.37043
 C827 C 0.18351 0.82129 0.37827
 C828 C 0.17189 0.81627 0.37254
 H829 H 0.19565 0.83884 0.37186
 H830 H 0.16616 0.80756 0.37577
 H831 H 0.16786 0.83109 0.33761
 H832 H 0.15735 0.84236 0.34828
 C833 C 0.24458 1.04171 0.25351
 C834 C 0.25491 1.04175 0.24455
 C835 C 0.25943 1.02847 0.24361
 N836 N 0.25236 1.02038 0.25185
 C837 C 0.24321 1.02843 0.25786
 C838 C 0.27035 1.02421 0.23569
 C839 C 0.27382 1.01047 0.23354
 C840 C 0.28545 1.00613 0.22725
 C841 C 0.28466 0.99222 0.22631
 C842 C 0.27259 0.98843 0.23209
 N843 N 0.26600 0.99961 0.23635
 C844 C 0.26774 0.97496 0.23276
 C845 C 0.25700 0.97079 0.24096
 C846 C 0.25184 0.95773 0.24139
 C847 C 0.24232 0.95761 0.25118
 C848 C 0.24184 0.97066 0.25630
 N849 N 0.25091 0.97865 0.25012
 C850 C 0.23377 0.97470 0.26711
 C851 C 0.23223 0.98833 0.27127
 C852 C 0.22573 0.99232 0.28277
 C853 C 0.22574 1.00627 0.28290
 C854 C 0.23228 1.01045 0.27150
 N855 N 0.23605 0.99947 0.26439
 C856 C 0.23409 1.02415 0.26773
 H857 H 0.23882 1.05050 0.25656
 H858 H 0.25866 1.05058 0.23935
 H859 H 0.23968 0.99963 0.25479
 H860 H 0.29360 1.01235 0.22356
 H861 H 0.29211 0.98565 0.22185
 H862 H 0.25478 0.94910 0.23543
 H863 H 0.23652 0.94887 0.25422
 H864 H 0.22142 1.01263 0.29052
 H865 H 0.25611 0.99993 0.23957
 H866 H 0.22129 0.98586 0.29024
 C867 C 0.26195 0.54085 0.75144
 C868 C 0.25183 0.54083 0.76064
 C869 C 0.24631 0.52792 0.76051
 N870 N 0.25271 0.52006 0.75154
 C871 C 0.26234 0.52792 0.74605
 C872 C 0.23502 0.52387 0.76801
 C873 C 0.23006 0.51044 0.76836
 C874 C 0.21763 0.50669 0.77335
 C875 C 0.21689 0.49278 0.77244
 C876 C 0.22890 0.48840 0.76693
 N877 N 0.23690 0.49923 0.76457
 C878 C 0.23258 0.47465 0.76519
 C879 C 0.24408 0.47036 0.75812
 C880 C 0.24876 0.45710 0.75768
 C881 C 0.25966 0.45708 0.74941
 C882 C 0.26121 0.47029 0.74493
 N883 N 0.25163 0.47837 0.75021
 C884 C 0.27076 0.47443 0.73540
 C885 C 0.27274 0.48810 0.73163
 C886 C 0.27952 0.49221 0.72035
 C887 C 0.27947 0.50617 0.72038
 C888 C 0.27272 0.51021 0.73172
 N889 N 0.26876 0.49912 0.73858
 C890 C 0.27097 0.52386 0.73570
 H891 H 0.26829 0.54942 0.74899
 H892 H 0.24881 0.54940 0.76663
 H893 H 0.26482 0.49904 0.74808
 H894 H 0.20992 0.51329 0.77733
 H895 H 0.20852 0.48658 0.77567
 H896 H 0.24472 0.44831 0.76272
 H897 H 0.26566 0.44828 0.74686
 H898 H 0.28394 0.51261 0.71290
 H899 H 0.24700 0.49889 0.76202
 H900 H 0.28399 0.48582 0.71284
 C901 C 0.73620 -0.03899 0.25338
 C902 C 0.74569 -0.03901 0.26322
 C903 C 0.75065 -0.02588 0.26400
 N904 N 0.74457 -0.01789 0.25491
 C905 C 0.73567 -0.02586 0.24846
 C906 C 0.76115 -0.02173 0.27249
 C907 C 0.76533 -0.00810 0.27396
 C908 C 0.77709 -0.00409 0.28020
 C909 C 0.77720 0.00987 0.28011
 C910 C 0.76548 0.01401 0.27383
 N911 N 0.75826 0.00299 0.27020
 C912 C 0.76146 0.02769 0.27224
 C913 C 0.75091 0.03188 0.26379
 C914 C 0.74584 0.04498 0.26315
 C915 C 0.73626 0.04500 0.25339
 C916 C 0.73578 0.03191 0.24839
 N917 N 0.74480 0.02393 0.25470
 C918 C 0.72758 0.02776 0.23771
 C919 C 0.72618 0.01411 0.23362
 C920 C 0.72032 0.01005 0.22183
 C921 C 0.72032 -0.00391 0.22183
 C922 C 0.72618 -0.00800 0.23363
 N923 N 0.72963 0.00305 0.24080
 C924 C 0.72758 -0.02166 0.23771
 H925 H 0.73041 -0.04769 0.25016
 H926 H 0.74867 -0.04772 0.26906
 H927 H 0.73275 0.00305 0.25059
 H928 H 0.78479 -0.01055 0.28444
 H929 H 0.78499 0.01624 0.28425
 H930 H 0.74875 0.05364 0.26907
 H931 H 0.73035 0.05369 0.25032
 H932 H 0.71639 -0.01032 0.21404
 H933 H 0.74843 0.00305 0.26674
 H934 H 0.71639 0.01648 0.21404
 C935 C 0.75317 0.45975 0.73514
 C936 C 0.76259 0.45987 0.74505
 C937 C 0.76256 0.47288 0.75028
 N938 N 0.75337 0.48066 0.74396
 C939 C 0.74768 0.47268 0.73464
 C940 C 0.77030 0.47704 0.76128
 C941 C 0.77076 0.49052 0.76604
 C942 C 0.77627 0.49436 0.77808
 C943 C 0.77535 0.50828 0.77874
 C944 C 0.76933 0.51258 0.76708
 N945 N 0.76669 0.50169 0.75936
 C946 C 0.76726 0.52632 0.76353
 C947 C 0.75944 0.53052 0.75257
 C948 C 0.75840 0.54380 0.74814
 C949 C 0.74945 0.54371 0.73783
 C950 C 0.74519 0.53040 0.73636
 N951 N 0.75125 0.52237 0.74543
 C952 C 0.73529 0.52607 0.72724
 C953 C 0.73180 0.51231 0.72518
 C954 C 0.72040 0.50798 0.71851
 C955 C 0.72088 0.49402 0.71824
 C956 C 0.73259 0.49020 0.72472
 N957 N 0.73924 0.50142 0.72882
 C958 C 0.73706 0.47663 0.72617
 H959 H 0.75060 0.45109 0.72907
 H960 H 0.76864 0.45130 0.74815
 H961 H 0.74894 0.50171 0.73260
 H962 H 0.78060 0.48784 0.78557
 H963 H 0.77890 0.51452 0.78682
 H964 H 0.76350 0.55267 0.75197
 H965 H 0.74635 0.55249 0.73215
 H966 H 0.71345 0.48744 0.71375
 H967 H 0.76374 0.50197 0.74953
 H968 H 0.71252 0.51422 0.71429
 C969 C 0.25105 0.45947 0.23850
 C970 C 0.26103 0.45953 0.24786
 C971 C 0.26140 0.47254 0.25307
 N972 N 0.25202 0.48042 0.24716
 C973 C 0.24575 0.47250 0.23817
 C974 C 0.26960 0.47658 0.26379
 C975 C 0.27010 0.48998 0.26876
 C976 C 0.27574 0.49363 0.28078
 C977 C 0.27449 0.50750 0.28183
 C978 C 0.26813 0.51196 0.27040
 N979 N 0.26563 0.50122 0.26244
 C980 C 0.26568 0.52573 0.26723
 C981 C 0.25781 0.53009 0.25637
 C982 C 0.25680 0.54343 0.25208
 C983 C 0.24793 0.54348 0.24171
 C984 C 0.24364 0.53019 0.24009
 N985 N 0.24964 0.52204 0.24911
 C986 C 0.23379 0.52598 0.23088
 C987 C 0.23004 0.51228 0.22897
 C988 C 0.21846 0.50810 0.22254
 C989 C 0.21864 0.49414 0.22250
 C990 C 0.23038 0.49016 0.22887
 N991 N 0.23733 0.50131 0.23264
 C992 C 0.23467 0.47654 0.23034
 H993 H 0.24799 0.45078 0.23270
 H994 H 0.26713 0.45089 0.25067
 H995 H 0.24711 0.50148 0.23622
 H996 H 0.28031 0.48700 0.28805
 H997 H 0.27801 0.51361 0.29001
 H998 H 0.26190 0.55225 0.25601
 H999 H 0.24489 0.55233 0.23610
 H1000 H 0.21105 0.48767 0.21814
 H1001 H 0.26242 0.50169 0.25269
 H1002 H 0.21065 0.51444 0.21833
 C1003 C 0.75031 0.95850 0.75997
 C1004 C 0.76081 0.95866 0.75122
 C1005 C 0.76179 0.97184 0.74647
 N1006 N 0.75227 0.97971 0.75213
 C1007 C 0.74519 0.97159 0.76035
 C1008 C 0.77089 0.97604 0.73652
 C1009 C 0.77204 0.98951 0.73168
 C1010 C 0.77961 0.99314 0.72072
 C1011 C 0.77798 1.00688 0.71898
 C1012 C 0.76938 1.01132 0.72886
 N1013 N 0.76603 1.00071 0.73673
 C1014 C 0.76501 1.02493 0.73028
 C1015 C 0.75445 1.02917 0.73869
 C1016 C 0.75019 1.04250 0.74004
 C1017 C 0.73963 1.04235 0.74872
 C1018 C 0.73774 1.02892 0.75244
 N1019 N 0.74678 1.02091 0.74623
 C1020 C 0.72808 1.02454 0.76181
 C1021 C 0.72647 1.01097 0.76625
 C1022 C 0.71788 1.00710 0.77638
 C1023 C 0.71959 0.99338 0.77820
 C1024 C 0.72924 0.98917 0.76919
 N1025 N 0.73315 0.99991 0.76176
 C1026 C 0.73419 0.97569 0.76830
 H1027 H 0.74685 0.94971 0.76542
 H1028 H 0.76694 0.94999 0.74857
 H1029 H 0.73950 0.99960 0.75369
 H1030 H 0.78559 0.98656 0.71449
 H1031 H 0.78245 1.01288 0.71116
 H1032 H 0.75425 1.05144 0.73526
 H1033 H 0.73406 1.05117 0.75199
 H1034 H 0.71448 0.98727 0.78553
 H1035 H 0.76080 1.00127 0.74557
 H1036 H 0.71119 1.01353 0.78203
 C1037 C 0.76292 0.45852 0.25484
 C1038 C 0.75291 0.45865 0.26414
 C1039 C 0.74759 0.47167 0.26414
 N1040 N 0.75396 0.47946 0.25510
 C1041 C 0.76338 0.47146 0.24944
 C1042 C 0.73656 0.47589 0.27192
 C1043 C 0.73238 0.48957 0.27306
 C1044 C 0.72039 0.49374 0.27878
 C1045 C 0.72042 0.50770 0.27865
 C1046 C 0.73241 0.51169 0.27283
 N1047 N 0.73967 0.50058 0.26953
 C1048 C 0.73661 0.52531 0.27133
 C1049 C 0.74730 0.52935 0.26301
 C1050 C 0.75238 0.54244 0.26224
 C1051 C 0.76206 0.54229 0.25261
 C1052 C 0.76263 0.52912 0.24783
 N1053 N 0.75354 0.52125 0.25414
 C1054 C 0.77100 0.52478 0.23737
 C1055 C 0.77272 0.51103 0.23374
 C1056 C 0.77890 0.50669 0.22220
 C1057 C 0.77917 0.49273 0.22264
 C1058 C 0.77315 0.48893 0.23444
 N1059 N 0.76934 0.50014 0.24119
 C1060 C 0.77184 0.47538 0.23889
 H1061 H 0.76910 0.44986 0.25229
 H1062 H 0.74987 0.45012 0.27018
 H1063 H 0.76600 0.50039 0.25090
 H1064 H 0.71248 0.48738 0.28272
 H1065 H 0.71253 0.51419 0.28245
 H1066 H 0.74937 0.55120 0.26797
 H1067 H 0.76800 0.55092 0.24947
 H1068 H 0.78336 0.48614 0.21513
 H1069 H 0.74963 0.50054 0.26647
 H1070 H 0.78285 0.51293 0.21430
 C1071 C 0.23712 -0.04231 0.75108
 C1072 C 0.24693 -0.04222 0.76061
 C1073 C 0.25171 -0.02902 0.76130
 N1074 N 0.24522 -0.02108 0.75244
 C1075 C 0.23622 -0.02916 0.74624
 C1076 C 0.26232 -0.02473 0.76960
 C1077 C 0.26622 -0.01103 0.77117
 C1078 C 0.27798 -0.00682 0.77731
 C1079 C 0.27769 0.00714 0.77753
 C1080 C 0.26576 0.01108 0.77154
 N1081 N 0.25880 -0.00006 0.76777
 C1082 C 0.26132 0.02467 0.77034
 C1083 C 0.25046 0.02872 0.76219
 C1084 C 0.24506 0.04169 0.76186
 C1085 C 0.23526 0.04162 0.75233
 C1086 C 0.23497 0.02859 0.74714
 N1087 N 0.24433 0.02075 0.75313
 C1088 C 0.22665 0.02443 0.73655
 C1089 C 0.22534 0.01080 0.73234
 C1090 C 0.21920 0.00678 0.72067
 C1091 C 0.21947 -0.00719 0.72047
 C1092 C 0.22577 -0.01133 0.73203
 N1093 N 0.22922 -0.00031 0.73925
 C1094 C 0.22763 -0.02504 0.73584
 H1095 H 0.23132 -0.05107 0.74805
 H1096 H 0.25020 -0.05090 0.76634
 H1097 H 0.23267 -0.00039 0.74893
 H1098 H 0.28590 -0.01316 0.78131
 H1099 H 0.28537 0.01364 0.78171
 H1100 H 0.24792 0.05034 0.76783
 H1101 H 0.22908 0.05020 0.74951
 H1102 H 0.21544 -0.01356 0.71271
 H1103 H 0.24891 -0.00022 0.76449
 H1104 H 0.21493 0.01324 0.71308
 C1105 C 0.24810 0.25552 1.04154
 C1106 C 0.25856 0.24647 1.04126
 C1107 C 0.26014 0.24253 1.02819
 N1108 N 0.25103 0.24899 1.02050
 C1109 C 0.24363 0.25691 1.02862
 C1110 C 0.26960 0.23276 1.02381
 C1111 C 0.27118 0.22846 1.01052
 C1112 C 0.27934 0.21776 1.00661
 C1113 C 0.27789 0.21647 0.99316
 C1114 C 0.26881 0.22637 0.98916
 N1115 N 0.26500 0.23380 0.99977
 C1116 C 0.26439 0.22814 0.97594
 C1117 C 0.25383 0.23691 0.97197
 C1118 C 0.24916 0.23811 0.95909
 C1119 C 0.23888 0.24735 0.95934
 C1120 C 0.23757 0.25156 0.97236
 N1121 N 0.24667 0.24510 0.98004
 C1122 C 0.22843 0.26165 0.97668
 C1123 C 0.22689 0.26593 0.98997
 C1124 C 0.21913 0.27695 0.99383
 C1125 C 0.22041 0.27806 1.00731
 C1126 C 0.22899 0.26776 1.01136
 N1127 N 0.23266 0.26023 1.00076
 C1128 C 0.23315 0.26574 1.02462
 H1129 H 0.24432 0.26059 1.05027
 H1130 H 0.26430 0.24315 1.04977
 H1131 H 0.23799 0.25120 1.00101
 H1132 H 0.28558 0.21139 1.01282
 H1133 H 0.28282 0.20894 0.98706
 H1134 H 0.25274 0.23283 0.95039
 H1135 H 0.23308 0.25063 0.95086
 H1136 H 0.21572 0.28577 1.01338
 H1137 H 0.25923 0.24254 0.99958
 H1138 H 0.21327 0.28364 0.98758
 C1139 C 0.24376 0.75074 0.54017
 C1140 C 0.25277 0.74021 0.53997
 C1141 C 0.25703 0.73885 0.52698
 N1142 N 0.25092 0.74823 0.51926
 C1143 C 0.24271 0.75543 0.52728
 C1144 C 0.26696 0.72957 0.52269
 C1145 C 0.27039 0.72747 0.50927
 C1146 C 0.28171 0.72052 0.50500
 C1147 C 0.28121 0.72033 0.49140
 C1148 C 0.26957 0.72715 0.48774
 N1149 N 0.26298 0.73135 0.49870
 C1150 C 0.26511 0.72882 0.47455
 C1151 C 0.25458 0.73768 0.47080
 C1152 C 0.24897 0.73827 0.45826
 C1153 C 0.23969 0.74856 0.45848
 C1154 C 0.23994 0.75396 0.47113
 N1155 N 0.24910 0.74733 0.47863
 C1156 C 0.23230 0.76531 0.47527
 C1157 C 0.23172 0.76995 0.48848
 C1158 C 0.22628 0.78229 0.49238
 C1159 C 0.22702 0.78270 0.50596
 C1160 C 0.23292 0.77061 0.50999
 N1161 N 0.23563 0.76287 0.49928
 C1162 C 0.23485 0.76670 0.52332
 H1163 H 0.23866 0.75455 0.54886
 H1164 H 0.25592 0.73431 0.54846
 H1165 H 0.23853 0.75275 0.49940
 H1166 H 0.28954 0.71605 0.51105
 H1167 H 0.28857 0.71568 0.48496
 H1168 H 0.25134 0.73197 0.44982
 H1169 H 0.23351 0.75175 0.45021
 H1170 H 0.22348 0.79091 0.51215
 H1171 H 0.25333 0.73535 0.49901
 H1172 H 0.22211 0.79014 0.48610
 C1173 C 0.24700 0.74153 -0.04252
 C1174 C 0.25721 0.75087 -0.04251
 C1175 C 0.25876 0.75512 -0.02953
 N1176 N 0.24985 0.74867 -0.02163
 C1177 C 0.24273 0.74025 -0.02953
 C1178 C 0.26782 0.76532 -0.02537
 C1179 C 0.26987 0.76890 -0.01199
 C1180 C 0.27630 0.78062 -0.00778
 C1181 C 0.27671 0.78009 0.00581
 C1182 C 0.27060 0.76802 0.00952
 N1183 N 0.26654 0.76123 -0.00139
 C1184 C 0.26955 0.76331 0.02269
 C1185 C 0.26157 0.75212 0.02652
 C1186 C 0.26174 0.74627 0.03899
 C1187 C 0.25213 0.73630 0.03892
 C1188 C 0.24636 0.73642 0.02643
 N1189 N 0.25212 0.74614 0.01889
 C1190 C 0.23532 0.72830 0.02257
 C1191 C 0.23029 0.72771 0.00950
 C1192 C 0.21810 0.72196 0.00592
 C1193 C 0.21710 0.72307 -0.00762
 C1194 C 0.22871 0.72949 -0.01194
 N1195 N 0.23675 0.73213 -0.00146
 C1196 C 0.23193 0.73196 -0.02536
 H1197 H 0.24314 0.73634 -0.05115
 H1198 H 0.26275 0.75422 -0.05111
 H1199 H 0.24665 0.73543 -0.00188
 H1200 H 0.28028 0.78871 -0.01386
 H1201 H 0.28111 0.78768 0.01221
 H1202 H 0.26808 0.74894 0.04730
 H1203 H 0.24959 0.72981 0.04719
 H1204 H 0.20881 0.71946 -0.01359
 H1205 H 0.26307 0.75130 -0.00170
 H1206 H 0.21069 0.71740 0.01238
 C1207 C 0.26325 0.24412 0.53997
 C1208 C 0.25317 0.23465 0.54000
 C1209 C 0.24765 0.23469 0.52741
 N1210 N 0.25398 0.24390 0.51971
 C1211 C 0.26357 0.24964 0.52736
 C1212 C 0.23639 0.22693 0.52351
 C1213 C 0.23181 0.22600 0.51031
 C1214 C 0.21951 0.22064 0.50653
 C1215 C 0.21915 0.22097 0.49293
 C1216 C 0.23125 0.22653 0.48880
 N1217 N 0.23894 0.22948 0.49945
 C1218 C 0.23518 0.22802 0.47545
 C1219 C 0.24627 0.23593 0.47136
 C1220 C 0.25134 0.23623 0.45860
 C1221 C 0.26153 0.24559 0.45858
 C1222 C 0.26234 0.25071 0.47132
 N1223 N 0.25296 0.24484 0.47910
 C1224 C 0.27112 0.26121 0.47532
 C1225 C 0.27292 0.26515 0.48863
 C1226 C 0.27924 0.27699 0.49267
 C1227 C 0.27950 0.27676 0.50626
 C1228 C 0.27334 0.26478 0.51015
 N1229 N 0.26945 0.25772 0.49934
 C1230 C 0.27203 0.26040 0.52340
 H1231 H 0.26957 0.24672 0.54832
 H1232 H 0.25017 0.22851 0.54838
 H1233 H 0.26597 0.24778 0.49924
 H1234 H 0.21163 0.21681 0.51289
 H1235 H 0.21095 0.21745 0.48679
 H1236 H 0.24803 0.23035 0.45017
 H1237 H 0.26761 0.24834 0.45012
 H1238 H 0.28377 0.28452 0.51256
 H1239 H 0.24900 0.23225 0.49926
 H1240 H 0.28327 0.28496 0.48646
 C1241 C 0.74150 0.75078 1.04105
 C1242 C 0.75183 0.74157 1.04113
 C1243 C 0.75604 0.74017 1.02813
 N1244 N 0.74861 0.74826 1.02016
 C1245 C 0.73975 0.75483 1.02802
 C1246 C 0.76632 0.73119 1.02396
 C1247 C 0.77007 0.72898 1.01062
 C1248 C 0.77845 0.71855 1.00645
 C1249 C 0.77934 0.71951 0.99293
 C1250 C 0.77158 0.73056 0.98913
 N1251 N 0.76615 0.73641 1.00002
 C1252 C 0.76977 0.73479 0.97584
 C1253 C 0.76070 0.74504 0.97168
 C1254 C 0.75919 0.74931 0.95869
 C1255 C 0.74922 0.75890 0.95867
 C1256 C 0.74493 0.76025 0.97165
 N1257 N 0.75201 0.75179 0.97956
 C1258 C 0.73483 0.76943 0.97586
 C1259 C 0.73075 0.77132 0.98917
 C1260 C 0.72211 0.78151 0.99335
 C1261 C 0.72086 0.78021 1.00682
 C1262 C 0.72870 0.76920 1.01057
 N1263 N 0.73449 0.76369 0.99970
 C1264 C 0.73039 0.76482 1.02383
 H1265 H 0.73596 0.75412 1.04966
 H1266 H 0.75569 0.73641 1.04979
 H1267 H 0.73992 0.75474 0.99939
 H1268 H 0.78326 0.71088 1.01249
 H1269 H 0.78497 0.71272 0.98660
 H1270 H 0.76469 0.74588 0.95009
 H1271 H 0.74563 0.76433 0.95005
 H1272 H 0.71496 0.78677 1.01315
 H1273 H 0.76090 0.74548 1.00031
 H1274 H 0.71734 0.78925 0.98736
 C1275 C 0.74940 0.24021 0.54157
 C1276 C 0.74123 0.25141 0.54154
 C1277 C 0.74062 0.25596 0.52857
 N1278 N 0.74833 0.24801 0.52073
 C1279 C 0.75365 0.23832 0.52865
 C1280 C 0.73360 0.26771 0.52438
 C1281 C 0.73187 0.27144 0.51098
 C1282 C 0.72656 0.28372 0.50670
 C1283 C 0.72561 0.28299 0.49314
 C1284 C 0.73035 0.27028 0.48951
 N1285 N 0.73404 0.26329 0.50044
 C1286 C 0.73050 0.26524 0.47643
 C1287 C 0.73757 0.25344 0.47254
 C1288 C 0.73708 0.24779 0.46000
 C1289 C 0.74591 0.23710 0.46001
 C1290 C 0.75147 0.23652 0.47257
 N1291 N 0.74642 0.24656 0.48019
 C1292 C 0.76171 0.22738 0.47645
 C1293 C 0.76589 0.22552 0.48971
 C1294 C 0.77723 0.21830 0.49355
 C1295 C 0.77755 0.21849 0.50715
 C1296 C 0.76643 0.22588 0.51126
 N1297 N 0.75929 0.22997 0.50058
 C1298 C 0.76301 0.22834 0.52461
 H1299 H 0.75203 0.23423 0.55018
 H1300 H 0.73638 0.25574 0.55013
 H1301 H 0.74981 0.23439 0.50075
 H1302 H 0.72350 0.29226 0.51272
 H1303 H 0.72175 0.29087 0.48670
 H1304 H 0.73108 0.25110 0.45165
 H1305 H 0.74803 0.23053 0.45169
 H1306 H 0.78516 0.21381 0.51332
 H1307 H 0.73638 0.25304 0.50079
 H1308 H 0.78454 0.21341 0.48722
 C1309 C 0.75005 0.24041 -0.04174
 C1310 C 0.76102 0.24881 -0.04185
 C1311 C 0.76273 0.25339 -0.02900
 N1312 N 0.75318 0.24804 -0.02105
 C1313 C 0.74548 0.24000 -0.02879
 C1314 C 0.77239 0.26311 -0.02506
 C1315 C 0.77469 0.26678 -0.01173
 C1316 C 0.78172 0.27820 -0.00772
 C1317 C 0.78191 0.27801 0.00588
 C1318 C 0.77504 0.26644 0.00980
 N1319 N 0.77079 0.25958 -0.00100
 C1320 C 0.77335 0.26227 0.02308
 C1321 C 0.76448 0.25186 0.02708
 C1322 C 0.76397 0.24640 0.03971
 C1323 C 0.75352 0.23734 0.03980
 C1324 C 0.74796 0.23758 0.02723
 N1325 N 0.75464 0.24651 0.01949
 C1326 C 0.73638 0.23027 0.02339
 C1327 C 0.73138 0.22995 0.01032
 C1328 C 0.71882 0.22508 0.00672
 C1329 C 0.71808 0.22592 -0.00685
 C1330 C 0.73022 0.23127 -0.01115
 N1331 N 0.73829 0.23359 -0.00063
 C1332 C 0.73390 0.23291 -0.02455
 H1333 H 0.74589 0.23529 -0.05027
 H1334 H 0.76695 0.25138 -0.05046
 H1335 H 0.74843 0.23598 -0.00100
 H1336 H 0.78617 0.28593 -0.01394
 H1337 H 0.78659 0.28555 0.01216
 H1338 H 0.77041 0.24876 0.04803
 H1339 H 0.75029 0.23138 0.04821
 H1340 H 0.70964 0.22274 -0.01285
 H1341 H 0.76666 0.24990 -0.00109
 H1342 H 0.71104 0.22122 0.01318
 C1343 C 0.75645 0.73468 0.45795
 C1344 C 0.76590 0.74479 0.45780
 C1345 C 0.76624 0.75019 0.47045
 N1346 N 0.75728 0.74375 0.47830
 C1347 C 0.75131 0.73422 0.47069
 C1348 C 0.77418 0.76141 0.47429
 C1349 C 0.77549 0.76580 0.48754
 C1350 C 0.78101 0.77810 0.49137
 C1351 C 0.78102 0.77824 0.50498
 C1352 C 0.77550 0.76602 0.50907
 N1353 N 0.77225 0.75846 0.49838
 C1354 C 0.77426 0.76188 0.52240
 C1355 C 0.76645 0.75067 0.52652
 C1356 C 0.76631 0.74549 0.53927
 C1357 C 0.75691 0.73533 0.53942
 C1358 C 0.75159 0.73464 0.52676
 N1359 N 0.75741 0.74406 0.51890
 C1360 C 0.74093 0.72601 0.52294
 C1361 C 0.73679 0.72426 0.50966
 C1362 C 0.72491 0.71805 0.50579
 C1363 C 0.72483 0.71798 0.49218
 C1364 C 0.73666 0.72415 0.48812
 N1365 N 0.74394 0.72783 0.49883
 C1366 C 0.74066 0.72571 0.47478
 H1367 H 0.75362 0.72844 0.44960
 H1368 H 0.77179 0.74788 0.44932
 H1369 H 0.75380 0.73131 0.49875
 H1370 H 0.78471 0.78613 0.48503
 H1371 H 0.78473 0.78640 0.51115
 H1372 H 0.77230 0.74874 0.54763
 H1373 H 0.75423 0.72922 0.54791
 H1374 H 0.71695 0.71385 0.48600
 H1375 H 0.76939 0.74833 0.49850
 H1376 H 0.71710 0.71399 0.51211
 C1377 C 1.04235 0.25596 0.24425
 C1378 C 1.04243 0.24583 0.25353
 C1379 C 1.02909 0.24290 0.25634
 N1380 N 1.02092 0.25099 0.24912
 C1381 C 1.02896 0.25902 0.24173
 C1382 C 1.02483 0.23321 0.26578
 C1383 C 1.01123 0.23008 0.26866
 C1384 C 1.00719 0.22157 0.27885
 C1385 C 0.99339 0.22129 0.27865
 C1386 C 0.98929 0.22963 0.26835
 N1387 N 1.00023 0.23473 0.26214
 C1388 C 0.97565 0.23243 0.26528
 C1389 C 0.97126 0.24269 0.25646
 C1390 C 0.95788 0.24581 0.25402
 C1391 C 0.95780 0.25663 0.24552
 C1392 C 0.97114 0.25970 0.24283
 N1393 N 0.97932 0.25118 0.24957
 C1394 C 0.97537 0.26997 0.23395
 C1395 C 0.98895 0.27267 0.23059
 C1396 C 0.99286 0.28104 0.22026
 C1397 C 1.00666 0.28064 0.21977
 C1398 C 1.01088 0.27204 0.22983
 N1399 N 1.00001 0.26744 0.23654
 C1400 C 1.02454 0.26881 0.23243
 H1401 H 1.05118 0.26051 0.23985
 H1402 H 1.05133 0.24120 0.25774
 H1403 H 1.00015 0.26183 0.24519
 H1404 H 1.01351 0.21620 0.28583
 H1405 H 0.98709 0.21575 0.28551
 H1406 H 0.94904 0.24090 0.25802
 H1407 H 0.94889 0.26159 0.24168
 H1408 H 1.01285 0.28600 0.21269
 H1409 H 1.00019 0.24028 0.25345
 H1410 H 0.98644 0.28667 0.21357
 C1411 C 0.54238 0.24448 0.75457
 C1412 C 0.54221 0.25588 0.74684
 C1413 C 0.52881 0.25894 0.74443
 N1414 N 0.52082 0.24982 0.75057
 C1415 C 0.52907 0.24096 0.75680
 C1416 C 0.52436 0.26973 0.73625
 C1417 C 0.51071 0.27276 0.73346
 C1418 C 0.50657 0.28192 0.72384
 C1419 C 0.49277 0.28169 0.72369
 C1420 C 0.48877 0.27240 0.73322
 N1421 N 0.49977 0.26720 0.73931
 C1422 C 0.47518 0.26890 0.73572
 C1423 C 0.47102 0.25793 0.74379
 C1424 C 0.45771 0.25445 0.74608
 C1425 C 0.45788 0.24308 0.75385
 C1426 C 0.47129 0.24000 0.75622
 N1427 N 0.47928 0.24908 0.75002
 C1428 C 0.47574 0.22920 0.76440
 C1429 C 0.48939 0.22611 0.76713
 C1430 C 0.49354 0.21689 0.77668
 C1431 C 0.50734 0.21709 0.77678
 C1432 C 0.51133 0.22643 0.76731
 N1433 N 0.50032 0.23170 0.76128
 C1434 C 0.52492 0.22993 0.76480
 H1435 H 0.55133 0.23941 0.75816
 H1436 H 0.55101 0.26124 0.74331
 H1437 H 0.50026 0.23806 0.75313
 H1438 H 0.51285 0.28795 0.71737
 H1439 H 0.48642 0.28750 0.71708
 H1440 H 0.44877 0.25953 0.74249
 H1441 H 0.44908 0.23775 0.75742
 H1442 H 0.51370 0.21121 0.78334
 H1443 H 0.49982 0.26089 0.74751
 H1444 H 0.48727 0.21083 0.78313
 C1445 C 0.04167 0.24064 0.75310
 C1446 C 0.04166 0.25150 0.76156
 C1447 C 0.02850 0.25614 0.76218
 N1448 N 0.02053 0.24859 0.75423
 C1449 C 0.02855 0.23907 0.74872
 C1450 C 0.02427 0.26766 0.76942
 C1451 C 0.01066 0.27140 0.77119
 C1452 C 0.00636 0.28354 0.77670
 C1453 C -0.00744 0.28289 0.77751
 C1454 C -0.01120 0.27037 0.77247
 N1455 N -0.00011 0.26340 0.76875
 C1456 C -0.02456 0.26548 0.77199
 C1457 C -0.02857 0.25402 0.76455
 C1458 C -0.04139 0.24850 0.76467
 C1459 C -0.04139 0.23817 0.75559
 C1460 C -0.02855 0.23767 0.75027
 N1461 N -0.02076 0.24742 0.75570
 C1462 C -0.02454 0.22885 0.74000
 C1463 C -0.01106 0.22715 0.73588
 C1464 C -0.00714 0.22035 0.72451
 C1465 C 0.00669 0.22047 0.72430
 C1466 C 0.01085 0.22738 0.73551
 N1467 N -0.00002 0.23128 0.74260
 C1468 C 0.02443 0.22953 0.73909
 H1469 H 0.05040 0.23469 0.75038
 H1470 H 0.05038 0.25555 0.76660
 H1471 H 0.00012 0.23530 0.75208
 H1472 H 0.01253 0.29195 0.77996
 H1473 H -0.01395 0.29072 0.78144
 H1474 H -0.04990 0.25165 0.77058
 H1475 H -0.04989 0.23180 0.75314
 H1476 H 0.01296 0.21603 0.71670
 H1477 H 0.00019 0.25322 0.76614
 H1478 H -0.01357 0.21575 0.71713
 C1479 C 0.45681 0.25505 0.25532
 C1480 C 0.45681 0.24372 0.24750
 C1481 C 0.47017 0.24026 0.24541
 N1482 N 0.47829 0.24908 0.25182
 C1483 C 0.47017 0.25813 0.25792
 C1484 C 0.47448 0.22934 0.23735
 C1485 C 0.48812 0.22586 0.23502
 C1486 C 0.49228 0.21664 0.22550
 C1487 C 0.50608 0.21640 0.22583
 C1488 C 0.51006 0.22547 0.23556
 N1489 N 0.49903 0.23099 0.24130
 C1490 C 0.52367 0.22852 0.23854
 C1491 C 0.52795 0.23915 0.24697
 C1492 C 0.54131 0.24222 0.24957
 C1493 C 0.54131 0.25349 0.25747
 C1494 C 0.52796 0.25692 0.25960
 N1495 N 0.51983 0.24813 0.25316
 C1496 C 0.52364 0.26789 0.26760
 C1497 C 0.51001 0.27143 0.26986
 C1498 C 0.50584 0.28082 0.27922
 C1499 C 0.49204 0.28113 0.27880
 C1500 C 0.48807 0.27191 0.26919
 N1501 N 0.49910 0.26623 0.26362
 C1502 C 0.47446 0.26892 0.26615
 H1503 H 0.44794 0.26035 0.25876
 H1504 H 0.44794 0.23866 0.24373
 H1505 H 0.49922 0.25987 0.25548
 H1506 H 0.48603 0.21087 0.21877
 H1507 H 0.51246 0.21042 0.21941
 H1508 H 0.55018 0.23698 0.24604
 H1509 H 0.55019 0.25856 0.26120
 H1510 H 0.48566 0.28726 0.28507
 H1511 H 0.49892 0.23724 0.24953
 H1512 H 0.51208 0.28668 0.28587
 C1513 C 1.04025 0.75709 0.76517
 C1514 C 1.04042 0.76693 0.75559
 C1515 C 1.02780 0.76688 0.74975
 N1516 N 1.01996 0.75730 0.75540
 C1517 C 1.02754 0.75131 0.76486
 C1518 C 1.02408 0.77498 0.73880
 C1519 C 1.01073 0.77616 0.73409
 C1520 C 1.00711 0.78220 0.72221
 C1521 C 0.99329 0.78181 0.72152
 C1522 C 0.98885 0.77547 0.73295
 N1523 N 0.99952 0.77219 0.74062
 C1524 C 0.97518 0.77336 0.73621
 C1525 C 0.97084 0.76435 0.74623
 C1526 C 0.95760 0.76287 0.75028
 C1527 C 0.95747 0.75261 0.75944
 C1528 C 0.97065 0.74822 0.76079
 N1529 N 0.97879 0.75533 0.75262
 C1530 C 0.97477 0.73726 0.76888
 C1531 C 0.98837 0.73380 0.77126
 C1532 C 0.99265 0.72195 0.77738
 C1533 C 1.00642 0.72277 0.77848
 C1534 C 1.01018 0.73511 0.77303
 N1535 N 0.99912 0.74182 0.76877
 C1536 C 1.02352 0.74007 0.77260
 H1537 H 1.04859 0.75440 0.77154
 H1538 H 1.04891 0.77332 0.75313
 H1539 H 0.99878 0.75186 0.76567
 H1540 H 1.01373 0.78649 0.71482
 H1541 H 0.98722 0.78570 0.71347
 H1542 H 0.94889 0.76849 0.74689
 H1543 H 0.94865 0.74877 0.76445
 H1544 H 1.01291 0.71516 0.78285
 H1545 H 0.99909 0.76874 0.75031
 H1546 H 0.98648 0.71360 0.78079
 C1547 C 0.45907 0.76032 0.24538
 C1548 C 0.45900 0.75052 0.25500
 C1549 C 0.47221 0.74629 0.25658
 N1550 N 0.48030 0.75321 0.24824
 C1551 C 0.47232 0.76176 0.24134
 C1552 C 0.47647 0.73640 0.26584
 C1553 C 0.49001 0.73239 0.26787
 C1554 C 0.49427 0.72406 0.27812
 C1555 C 0.50796 0.72275 0.27692
 C1556 C 0.51177 0.73027 0.26594
 N1557 N 0.50072 0.73590 0.26034
 C1558 C 0.52524 0.73174 0.26159
 C1559 C 0.52956 0.74077 0.25156
 C1560 C 0.54284 0.74238 0.24767
 C1561 C 0.54296 0.75241 0.23829
 C1562 C 0.52974 0.75662 0.23667
 N1563 N 0.52160 0.74945 0.24477
 C1564 C 0.52552 0.76669 0.22757
 C1565 C 0.51194 0.77048 0.22533
 C1566 C 0.50770 0.77873 0.21501
 C1567 C 0.49396 0.77977 0.21599
 C1568 C 0.49011 0.77222 0.22693
 N1569 N 0.50118 0.76678 0.23269
 C1570 C 0.47661 0.77061 0.23114
 H1571 H 0.45032 0.76572 0.24178
 H1572 H 0.45020 0.74700 0.26028
 H1573 H 0.50146 0.76169 0.24164
 H1574 H 0.48818 0.71951 0.28579
 H1575 H 0.51440 0.71703 0.28353
 H1576 H 0.55158 0.73695 0.25127
 H1577 H 0.55179 0.75609 0.23317
 H1578 H 0.48752 0.78539 0.20929
 H1579 H 0.50041 0.74101 0.25141
 H1580 H 0.51383 0.78339 0.20743
 C1581 C -0.04361 0.74247 0.24913
 C1582 C -0.04357 0.75209 0.25891
 C1583 C -0.03021 0.75529 0.26134
 N1584 N -0.02215 0.74784 0.25342
 C1585 C -0.03028 0.73999 0.24594
 C1586 C -0.02583 0.76487 0.27087
 C1587 C -0.01219 0.76807 0.27358
 C1588 C -0.00801 0.77670 0.28362
 C1589 C 0.00579 0.77710 0.28317
 C1590 C 0.00976 0.76871 0.27287
 N1591 N -0.00128 0.76344 0.26696
 C1592 C 0.02334 0.76609 0.26947
 C1593 C 0.02763 0.75612 0.26031
 C1594 C 0.04098 0.75299 0.25773
 C1595 C 0.04093 0.74266 0.24868
 C1596 C 0.02757 0.73990 0.24583
 N1597 N 0.01948 0.74812 0.25299
 C1598 C 0.02320 0.73030 0.23635
 C1599 C 0.00958 0.72791 0.23293
 C1600 C 0.00553 0.72048 0.22199
 C1601 C -0.00828 0.72076 0.22180
 C1602 C -0.01236 0.72834 0.23264
 N1603 N -0.00139 0.73244 0.23952
 C1604 C -0.02598 0.73105 0.23583
 H1605 H -0.05249 0.73791 0.24483
 H1606 H -0.05242 0.75624 0.26366
 H1607 H -0.00138 0.73710 0.24869
 H1608 H -0.01424 0.78210 0.29064
 H1609 H 0.01218 0.78279 0.28983
 H1610 H 0.04987 0.75760 0.26196
 H1611 H 0.04978 0.73785 0.24457
 H1612 H -0.01457 0.71598 0.21442
 H1613 H -0.00138 0.75772 0.25841
 H1614 H 0.01186 0.71554 0.21474
 C1615 C 0.54056 0.75933 0.75154
 C1616 C 0.54072 0.74890 0.74259
 C1617 C 0.52761 0.74421 0.74160
 N1618 N 0.51951 0.75132 0.74980
 C1619 C 0.52738 0.76064 0.75581
 C1620 C 0.52354 0.73306 0.73375
 C1621 C 0.50999 0.72904 0.73202
 C1622 C 0.50594 0.71712 0.72590
 C1623 C 0.49212 0.71737 0.72545
 C1624 C 0.48808 0.72944 0.73128
 N1625 N 0.49903 0.73653 0.73516
 C1626 C 0.47459 0.73386 0.73224
 C1627 C 0.47031 0.74478 0.74027
 C1628 C 0.45728 0.74980 0.74063
 C1629 C 0.45712 0.75986 0.74999
 C1630 C 0.47008 0.76072 0.75499
 N1631 N 0.47808 0.75141 0.74912
 C1632 C 0.47409 0.76961 0.76522
 C1633 C 0.48758 0.77149 0.76926
 C1634 C 0.49148 0.77857 0.78047
 C1635 C 0.50532 0.77870 0.78055
 C1636 C 0.50949 0.77167 0.76940
 N1637 N 0.49861 0.76744 0.76251
 C1638 C 0.52306 0.76985 0.76564
 H1639 H 0.54922 0.76517 0.75466
 H1640 H 0.54953 0.74513 0.73750
 H1641 H 0.49872 0.76339 0.75306
 H1642 H 0.51227 0.70913 0.72201
 H1643 H 0.48576 0.70959 0.72120
 H1644 H 0.44874 0.74652 0.73482
 H1645 H 0.44844 0.76583 0.75280
 H1646 H 0.51159 0.78346 0.78796
 H1647 H 0.49906 0.74653 0.73832
 H1648 H 0.48504 0.78325 0.78778
 C1649 C 0.40426 0.29254 0.31653
 C1650 C 0.41220 0.29851 0.30649
 C1651 C 0.40828 0.31151 0.30179
 C1652 C 0.39699 0.31818 0.30713
 C1653 C 0.38933 0.31213 0.31716
 C1654 C 0.39310 0.29923 0.32172
 C1655 C 0.41562 0.31777 0.29176
 C1656 C 0.42669 0.31140 0.28612
 C1657 C 0.43100 0.29843 0.29038
 C1658 C 0.42375 0.29198 0.30088
 C1659 C 0.42829 0.27922 0.30546
 C1660 C 0.43924 0.27276 0.29977
 C1661 C 0.44615 0.27869 0.28930
 C1662 C 0.44225 0.29164 0.28445
 C1663 C 0.44972 0.29711 0.27375
 C1664 C 0.46033 0.28986 0.26803
 C1665 C 0.46385 0.27704 0.27280
 C1666 C 0.45688 0.27158 0.28354
 H1667 H 0.40623 0.28262 0.32056
 H1668 H 0.39426 0.32815 0.30348
 H1669 H 0.38733 0.29409 0.32927
 H1670 H 0.41272 0.32772 0.28814
 H1671 H 0.43171 0.31699 0.27842
 H1672 H 0.42364 0.27385 0.31351
 H1673 H 0.44226 0.26292 0.30357
 H1674 H 0.44753 0.30684 0.26939
 H1675 H 0.46567 0.29418 0.25970
 H1676 H 0.45968 0.26161 0.28720
 C1677 C 0.40473 0.79210 0.81748
 C1678 C 0.41170 0.79752 0.80648
 C1679 C 0.40689 0.80989 0.80110
 C1680 C 0.39542 0.81626 0.80634
 C1681 C 0.38846 0.81068 0.81716
 C1682 C 0.39339 0.79856 0.82268
 C1683 C 0.41350 0.81591 0.79047
 C1684 C 0.42482 0.80994 0.78496
 C1685 C 0.42998 0.79753 0.78980
 C1686 C 0.42322 0.79112 0.80065
 C1687 C 0.42806 0.77844 0.80514
 C1688 C 0.43899 0.77215 0.79921
 C1689 C 0.44570 0.77826 0.78869
 C1690 C 0.44149 0.79116 0.78396
 C1691 C 0.44897 0.79706 0.77349
 C1692 C 0.45974 0.79018 0.76771
 C1693 C 0.46342 0.77730 0.77217
 C1694 C 0.45652 0.77143 0.78274
 H1695 H 0.40777 0.78290 0.82241
 H1696 H 0.39208 0.82566 0.80190
 H1697 H 0.38851 0.79383 0.83104
 H1698 H 0.40987 0.82538 0.78631
 H1699 H 0.42914 0.81526 0.77670
 H1700 H 0.42346 0.77290 0.81312
 H1701 H 0.44221 0.76232 0.80290
 H1702 H 0.44679 0.80695 0.76949
 H1703 H 0.46509 0.79483 0.75955
 H1704 H 0.45950 0.76144 0.78619
 C1705 C -0.09791 0.31429 0.79220
 C1706 C -0.08863 0.30565 0.79873
 C1707 C -0.09080 0.30304 0.81236
 C1708 C -0.10200 0.30856 0.81894
 C1709 C -0.11113 0.31697 0.81226
 C1710 C -0.10890 0.31981 0.79887
 C1711 C -0.08178 0.29493 0.81938
 C1712 C -0.07060 0.28933 0.81323
 C1713 C -0.06803 0.29146 0.79965
 C1714 C -0.07733 0.29957 0.79223
 C1715 C -0.07517 0.30111 0.77850
 C1716 C -0.06437 0.29496 0.77222
 C1717 C -0.05515 0.28719 0.77931
 C1718 C -0.05665 0.28549 0.79317
 C1719 C -0.04669 0.27781 0.79991
 C1720 C -0.03612 0.27166 0.79305
 C1721 C -0.03511 0.27300 0.77935
 C1722 C -0.04450 0.28092 0.77254
 H1723 H -0.09696 0.31711 0.78196
 H1724 H -0.10349 0.30644 0.82935
 H1725 H -0.11578 0.32623 0.79339
 H1726 H -0.08338 0.29289 0.82980
 H1727 H -0.06427 0.28312 0.81942
 H1728 H -0.08182 0.30680 0.77218
 H1729 H -0.06325 0.29629 0.76163
 H1730 H -0.04674 0.27632 0.81045
 H1731 H -0.02883 0.26562 0.79843
 H1732 H -0.04360 0.28199 0.76190
 C1733 C -0.09819 0.81417 0.29193
 C1734 C -0.08927 0.80516 0.29842
 C1735 C -0.09250 0.80120 0.31152
 C1736 C -0.10408 0.80629 0.31781
 C1737 C -0.11277 0.81526 0.31122
 C1738 C -0.10966 0.81908 0.29822
 C1739 C -0.08423 0.79209 0.31827
 C1740 C -0.07297 0.78652 0.31223
 C1741 C -0.06939 0.78998 0.29914
 C1742 C -0.07743 0.79979 0.29228
 C1743 C -0.07336 0.80393 0.27952
 C1744 C -0.06220 0.79831 0.27342
 C1745 C -0.05465 0.78828 0.27968
 C1746 C -0.05805 0.78395 0.29265
 C1747 C -0.05012 0.77351 0.29839
 C1748 C -0.03950 0.76757 0.29144
 C1749 C -0.03637 0.77191 0.27866
 C1750 C -0.04383 0.78237 0.27289
 H1751 H -0.09679 0.81747 0.28188
 H1752 H -0.10628 0.80318 0.32784
 H1753 H -0.11615 0.82582 0.29269
 H1754 H -0.08658 0.78910 0.32833
 H1755 H -0.06718 0.77959 0.31819
 H1756 H -0.07854 0.81164 0.27393
 H1757 H -0.05955 0.80174 0.26357
 H1758 H -0.05203 0.76943 0.30809
 H1759 H -0.03382 0.75940 0.29595
 H1760 H -0.04141 0.78561 0.26292
 C1761 C 0.59546 0.71069 0.31311
 C1762 C 0.58716 0.70411 0.30371
 C1763 C 0.59051 0.69059 0.30017
 C1764 C 0.60168 0.68407 0.30588
 C1765 C 0.60978 0.69077 0.31516
 C1766 C 0.60652 0.70411 0.31869
 C1767 C 0.58276 0.68364 0.29092
 C1768 C 0.57181 0.68982 0.28489
 C1769 C 0.56809 0.70331 0.28791
 C1770 C 0.57578 0.71051 0.29763
 C1771 C 0.57187 0.72388 0.30091
 C1772 C 0.56110 0.73016 0.29472
 C1773 C 0.55375 0.72345 0.28501
 C1774 C 0.55701 0.70989 0.28149
 C1775 C 0.54910 0.70361 0.27153
 C1776 C 0.53867 0.71063 0.26527
 C1777 C 0.53577 0.72402 0.26874
 C1778 C 0.54320 0.73034 0.27869
 H1779 H 0.59385 0.72097 0.31632
 H1780 H 0.60399 0.67371 0.30311
 H1781 H 0.61263 0.70967 0.32569
 H1782 H 0.58524 0.67328 0.28823
 H1783 H 0.56645 0.68367 0.27785
 H1784 H 0.57693 0.72988 0.30827
 H1785 H 0.55856 0.74048 0.29750
 H1786 H 0.55078 0.69338 0.26819
 H1787 H 0.53294 0.70566 0.25755
 H1788 H 0.54087 0.74076 0.28133
 C1789 C 0.59514 0.20761 0.81596
 C1790 C 0.58718 0.20140 0.80606
 C1791 C 0.59114 0.18834 0.80162
 C1792 C 0.60250 0.18184 0.80704
 C1793 C 0.61023 0.18816 0.81687
 C1794 C 0.60640 0.20110 0.82122
 C1795 C 0.58379 0.18181 0.79176
 C1796 C 0.57270 0.18802 0.78598
 C1797 C 0.56838 0.20108 0.78992
 C1798 C 0.57559 0.20776 0.80032
 C1799 C 0.57097 0.22058 0.80463
 C1800 C 0.56000 0.22688 0.79877
 C1801 C 0.55316 0.22074 0.78836
 C1802 C 0.55714 0.20772 0.78378
 C1803 C 0.54979 0.20205 0.77310
 C1804 C 0.53920 0.20915 0.76716
 C1805 C 0.53557 0.22203 0.77167
 C1806 C 0.54243 0.22770 0.78239
 H1807 H 0.59311 0.21759 0.81980
 H1808 H 0.60526 0.17182 0.80357
 H1809 H 0.61219 0.20641 0.82864
 H1810 H 0.58672 0.17180 0.78837
 H1811 H 0.56767 0.18223 0.77843
 H1812 H 0.57558 0.22610 0.81261
 H1813 H 0.55692 0.23677 0.80237
 H1814 H 0.55207 0.19227 0.76891
 H1815 H 0.53394 0.20466 0.75886
 H1816 H 0.53956 0.23771 0.78585
 C1817 C 1.09845 0.69363 0.79204
 C1818 C 1.08859 0.70125 0.79890
 C1819 C 1.09036 0.70302 0.81272
 C1820 C 1.10157 0.69736 0.81926
 C1821 C 1.11106 0.68968 0.81227
 C1822 C 1.10940 0.68797 0.79864
 C1823 C 1.08090 0.71033 0.81997
 C1824 C 1.06965 0.71593 0.81387
 C1825 C 1.06741 0.71451 0.80014
 C1826 C 1.07709 0.70711 0.79252
 C1827 C 1.07500 0.70588 0.77875
 C1828 C 1.06400 0.71176 0.77258
 C1829 C 1.05452 0.71901 0.77982
 C1830 C 1.05591 0.72038 0.79373
 C1831 C 1.04575 0.72769 0.80055
 C1832 C 1.03505 0.73373 0.79373
 C1833 C 1.03412 0.73265 0.78000
 C1834 C 1.04373 0.72510 0.77312
 H1835 H 1.09804 0.69174 0.78158
 H1836 H 1.10272 0.69868 0.82984
 H1837 H 1.11667 0.68229 0.79292
 H1838 H 1.08218 0.71172 0.83053
 H1839 H 1.06293 0.72144 0.82025
 H1840 H 1.08177 0.70052 0.77231
 H1841 H 1.06293 0.71065 0.76197
 H1842 H 1.04578 0.72904 0.81111
 H1843 H 1.02762 0.73951 0.79917
 H1844 H 1.04291 0.72424 0.76246
 C1845 C 1.09579 0.18297 0.29035
 C1846 C 1.08726 0.19295 0.29597
 C1847 C 1.09060 0.19782 0.30874
 C1848 C 1.10190 0.19280 0.31552
 C1849 C 1.11024 0.18296 0.30979
 C1850 C 1.10703 0.17810 0.29716
 C1851 C 1.08269 0.20774 0.31473
 C1852 C 1.07166 0.21323 0.30824
 C1853 C 1.06799 0.20893 0.29541
 C1854 C 1.07571 0.19837 0.28930
 C1855 C 1.07163 0.19360 0.27676
 C1856 C 1.06067 0.19918 0.27021
 C1857 C 1.05336 0.20980 0.27579
 C1858 C 1.05686 0.21485 0.28848
 C1859 C 1.04919 0.22583 0.29355
 C1860 C 1.03870 0.23153 0.28625
 C1861 C 1.03542 0.22647 0.27378
 C1862 C 1.04267 0.21554 0.26862
 H1863 H 1.09422 0.17881 0.28064
 H1864 H 1.10413 0.19663 0.32531
 H1865 H 1.11330 0.17061 0.29235
 H1866 H 1.08512 0.21142 0.32455
 H1867 H 1.06615 0.22081 0.31365
 H1868 H 1.07666 0.18546 0.27168
 H1869 H 1.05798 0.19523 0.26056
 H1870 H 1.05118 0.23048 0.30297
 H1871 H 1.03319 0.24008 0.29028
 H1872 H 1.04014 0.21173 0.25887
 C1873 C 0.59485 0.29163 0.68589
 C1874 C 0.58656 0.29813 0.69533
 C1875 C 0.59027 0.31136 0.69946
 C1876 C 0.60160 0.31784 0.69402
 C1877 C 0.60955 0.31130 0.68451
 C1878 C 0.60607 0.29811 0.68062
 C1879 C 0.58268 0.31807 0.70903
 C1880 C 0.57160 0.31187 0.71480
 C1881 C 0.56750 0.29869 0.71109
 C1882 C 0.57489 0.29186 0.70092
 C1883 C 0.57033 0.27903 0.69661
 C1884 C 0.55931 0.27279 0.70237
 C1885 C 0.55240 0.27899 0.71268
 C1886 C 0.55628 0.29206 0.71720
 C1887 C 0.54889 0.29777 0.72784
 C1888 C 0.53835 0.29065 0.73379
 C1889 C 0.53483 0.27773 0.72932
 C1890 C 0.54170 0.27204 0.71864
 H1891 H 0.59313 0.28142 0.68248
 H1892 H 0.60415 0.32802 0.69718
 H1893 H 0.61211 0.29259 0.67354
 H1894 H 0.58542 0.32822 0.71219
 H1895 H 0.56637 0.31780 0.72211
 H1896 H 0.57497 0.27350 0.68865
 H1897 H 0.55626 0.26288 0.69879
 H1898 H 0.55116 0.30755 0.73201
 H1899 H 0.53309 0.29513 0.74208
 H1900 H 0.53891 0.26199 0.71524
 C1901 C 0.59787 0.81560 0.20568
 C1902 C 0.58911 0.80629 0.19942
 C1903 C 0.59249 0.80198 0.18646
 C1904 C 0.60405 0.80703 0.18009
 C1905 C 0.61253 0.81636 0.18643
 C1906 C 0.60929 0.82050 0.19930
 C1907 C 0.58434 0.79263 0.17991
 C1908 C 0.57304 0.78720 0.18602
 C1909 C 0.56931 0.79101 0.19897
 C1910 C 0.57728 0.80099 0.20564
 C1911 C 0.57317 0.80536 0.21831
 C1912 C 0.56200 0.79984 0.22450
 C1913 C 0.55448 0.78971 0.21840
 C1914 C 0.55792 0.78514 0.20553
 C1915 C 0.54994 0.77467 0.19993
 C1916 C 0.53926 0.76892 0.20695
 C1917 C 0.53611 0.77349 0.21965
 C1918 C 0.54362 0.78397 0.22526
 H1919 H 0.59633 0.81923 0.21560
 H1920 H 0.60635 0.80371 0.17013
 H1921 H 0.61564 0.82751 0.20464
 H1922 H 0.58680 0.78935 0.16997
 H1923 H 0.56737 0.78004 0.18023
 H1924 H 0.57832 0.81314 0.22379
 H1925 H 0.55931 0.80346 0.23427
 H1926 H 0.55184 0.77046 0.19029
 H1927 H 0.53354 0.76072 0.20256
 H1928 H 0.54118 0.78739 0.23517
 C1929 C 1.09644 0.31764 0.20843
 C1930 C 1.08772 0.30792 0.20270
 C1931 C 1.09102 0.30302 0.18993
 C1932 C 1.10248 0.30779 0.18327
 C1933 C 1.11099 0.31742 0.18909
 C1934 C 1.10781 0.32227 0.20173
 C1935 C 1.08292 0.29334 0.18383
 C1936 C 1.07170 0.28813 0.19019
 C1937 C 1.06803 0.29248 0.20299
 C1938 C 1.07599 0.30277 0.20923
 C1939 C 1.07196 0.30756 0.22178
 C1940 C 1.06084 0.30222 0.22823
 C1941 C 1.05329 0.29186 0.22252
 C1942 C 1.05669 0.28684 0.20980
 C1943 C 1.04874 0.27616 0.20457
 C1944 C 1.03813 0.27062 0.21181
 C1945 C 1.03502 0.27558 0.22436
 C1946 C 1.04248 0.28631 0.22962
 H1947 H 1.09491 0.32178 0.21816
 H1948 H 1.10469 0.30397 0.17347
 H1949 H 1.11422 0.32958 0.20662
 H1950 H 1.08535 0.28963 0.17402
 H1951 H 1.06606 0.28071 0.18470
 H1952 H 1.07717 0.31552 0.22696
 H1953 H 1.05822 0.30616 0.23790
 H1954 H 1.05059 0.27160 0.19508
 H1955 H 1.03246 0.26224 0.20770
 H1956 H 1.04008 0.29003 0.23942
 C1957 C 1.09816 0.79119 0.69088
 C1958 C 1.08909 0.79863 0.69888
 C1959 C 1.09151 0.81273 0.70044
 C1960 C 1.10269 0.81893 0.69439
 C1961 C 1.11150 0.81137 0.68648
 C1962 C 1.10910 0.79747 0.68482
 C1963 C 1.08274 0.82062 0.70795
 C1964 C 1.07149 0.81490 0.71390
 C1965 C 1.06861 0.80091 0.71270
 C1966 C 1.07771 0.79259 0.70527
 C1967 C 1.07520 0.77850 0.70459
 C1968 C 1.06422 0.77269 0.71084
 C1969 C 1.05517 0.78064 0.71792
 C1970 C 1.05707 0.79489 0.71886
 C1971 C 1.04730 0.80246 0.72596
 C1972 C 1.03646 0.79604 0.73216
 C1973 C 1.03500 0.78196 0.73146
 C1974 C 1.04427 0.77434 0.72421
 H1975 H 1.09707 0.78051 0.68893
 H1976 H 1.10434 0.82973 0.69564
 H1977 H 1.11576 0.79130 0.67887
 H1978 H 1.08454 0.83139 0.70922
 H1979 H 1.06533 0.82175 0.71956
 H1980 H 1.08168 0.77152 0.69945
 H1981 H 1.06281 0.76180 0.71013
 H1982 H 1.04770 0.81333 0.72693
 H1983 H 1.02930 0.80205 0.73770
 H1984 H 1.04303 0.76341 0.72363
 C1985 C 0.40237 0.68485 0.70917
 C1986 C 0.41170 0.69373 0.70308
 C1987 C 0.40956 0.69703 0.68959
 C1988 C 0.39843 0.69183 0.68269
 C1989 C 0.38923 0.68319 0.68895
 C1990 C 0.39138 0.67971 0.70221
 C1991 C 0.41848 0.70557 0.68300
 C1992 C 0.42949 0.71108 0.68950
 C1993 C 0.43203 0.70831 0.70298
 C1994 C 0.42297 0.69950 0.70990
 C1995 C 0.42537 0.69691 0.72344
 C1996 C 0.43605 0.70288 0.73008
 C1997 C 0.44487 0.71154 0.72354
 C1998 C 0.44317 0.71425 0.70985
 C1999 C 0.45267 0.72293 0.70368
 C2000 C 0.46300 0.72897 0.71093
 C2001 C 0.46425 0.72655 0.72447
 C2002 C 0.45531 0.71770 0.73071
 H2003 H 0.40320 0.68163 0.71931
 H2004 H 0.39702 0.69446 0.67238
 H2005 H 0.38443 0.67312 0.70736
 H2006 H 0.41691 0.70811 0.67268
 H2007 H 0.43574 0.71765 0.68364
 H2008 H 0.41906 0.69043 0.72933
 H2009 H 0.43736 0.70072 0.74052
 H2010 H 0.45239 0.72537 0.69331
 H2011 H 0.46993 0.73578 0.70600
 H2012 H 0.45639 0.71580 0.74123
 C2013 C 0.40543 0.20716 0.18453
 C2014 C 0.41291 0.20116 0.19495
 C2015 C 0.40860 0.18830 0.19962
 C2016 C 0.39729 0.18189 0.19410
 C2017 C 0.38999 0.18803 0.18384
 C2018 C 0.39423 0.20069 0.17912
 C2019 C 0.41556 0.18188 0.20983
 C2020 C 0.42663 0.18798 0.21571
 C2021 C 0.43127 0.20086 0.21159
 C2022 C 0.42438 0.20750 0.20093
 C2023 C 0.42913 0.22029 0.19668
 C2024 C 0.43999 0.22654 0.20275
 C2025 C 0.44661 0.22038 0.21329
 C2026 C 0.44248 0.20740 0.21785
 C2027 C 0.44967 0.20164 0.22861
 C2028 C 0.46020 0.20865 0.23470
 C2029 C 0.46394 0.22152 0.23026
 C2030 C 0.45728 0.22726 0.21944
 H2031 H 0.40787 0.21690 0.18035
 H2032 H 0.39425 0.17203 0.19777
 H2033 H 0.38878 0.20578 0.17129
 H2034 H 0.41235 0.17202 0.21341
 H2035 H 0.43130 0.18229 0.22356
 H2036 H 0.42463 0.22587 0.18866
 H2037 H 0.44317 0.23642 0.19919
 H2038 H 0.44736 0.19183 0.23271
 H2039 H 0.46534 0.20410 0.24305
 H2040 H 0.46026 0.23725 0.21601
 C2041 C -0.09624 0.68125 0.20906
 C2042 C -0.08805 0.69177 0.20395
 C2043 C -0.09174 0.69745 0.19158
 C2044 C -0.10310 0.69270 0.18471
 C2045 C -0.11116 0.68233 0.18996
 C2046 C -0.10753 0.67667 0.20218
 C2047 C -0.08414 0.70794 0.18613
 C2048 C -0.07310 0.71318 0.19279
 C2049 C -0.06910 0.70807 0.20524
 C2050 C -0.07649 0.69695 0.21076
 C2051 C -0.07210 0.69140 0.22291
 C2052 C -0.06116 0.69673 0.22965
 C2053 C -0.05417 0.70786 0.22467
 C2054 C -0.05798 0.71372 0.21239
 C2055 C -0.05062 0.72518 0.20794
 C2056 C -0.04013 0.73057 0.21546
 C2057 C -0.03656 0.72471 0.22754
 C2058 C -0.04349 0.71329 0.23205
 H2059 H -0.09438 0.67643 0.21843
 H2060 H -0.10568 0.69725 0.17530
 H2061 H -0.11344 0.66868 0.20662
 H2062 H -0.08684 0.71225 0.17662
 H2063 H -0.06785 0.72124 0.18781
 H2064 H -0.07686 0.68282 0.22753
 H2065 H -0.05823 0.69217 0.23898
 H2066 H -0.05285 0.73042 0.19886
 H2067 H -0.03486 0.73949 0.21193
 H2068 H -0.04073 0.70885 0.24149
 C2069 C -0.09545 0.20977 0.68849
 C2070 C -0.08724 0.20299 0.69786
 C2071 C -0.09027 0.18923 0.70070
 C2072 C -0.10133 0.18281 0.69472
 C2073 C -0.10947 0.18977 0.68566
 C2074 C -0.10633 0.20325 0.68254
 C2075 C -0.08227 0.18191 0.70951
 C2076 C -0.07126 0.18790 0.71561
 C2077 C -0.06788 0.20162 0.71328
 C2078 C -0.07616 0.20936 0.70445
 C2079 C -0.07325 0.22328 0.70269
 C2080 C -0.06263 0.22944 0.70924
 C2081 C -0.05434 0.22201 0.71767
 C2082 C -0.05666 0.20795 0.71970
 C2083 C -0.04762 0.20086 0.72811
 C2084 C -0.03709 0.20760 0.73449
 C2085 C -0.03524 0.22153 0.73269
 C2086 C -0.04378 0.22866 0.72419
 H2087 H -0.09373 0.22009 0.68542
 H2088 H -0.10349 0.17229 0.69705
 H2089 H -0.11241 0.20893 0.67558
 H2090 H -0.08454 0.17139 0.71173
 H2091 H -0.06574 0.18151 0.72234
 H2092 H -0.07918 0.22987 0.69650
 H2093 H -0.06090 0.24020 0.70769
 H2094 H -0.04832 0.19012 0.72994
 H2095 H -0.03045 0.20196 0.74098
 H2096 H -0.04221 0.23946 0.72276
 C2097 C 0.29014 0.40186 0.30999
 C2098 C 0.29694 0.41139 0.30193
 C2099 C 0.31080 0.40911 0.29942
 C2100 C 0.31748 0.39781 0.30494
 C2101 C 0.31059 0.38870 0.31313
 C2102 C 0.29687 0.39080 0.31546
 C2103 C 0.31796 0.41815 0.29150
 C2104 C 0.31172 0.42946 0.28599
 C2105 C 0.29796 0.43223 0.28820
 C2106 C 0.29045 0.42303 0.29630
 C2107 C 0.27668 0.42576 0.29852
 C2108 C 0.27037 0.43688 0.29287
 C2109 C 0.27746 0.44584 0.28486
 C2110 C 0.29139 0.44381 0.28248
 C2111 C 0.29807 0.45345 0.27437
 C2112 C 0.29107 0.46428 0.26863
 C2113 C 0.27729 0.46586 0.27080
 C2114 C 0.27058 0.45676 0.27906
 H2115 H 0.27962 0.40258 0.31234
 H2116 H 0.32811 0.39630 0.30307
 H2117 H 0.29117 0.38380 0.32151
 H2118 H 0.32855 0.41647 0.28952
 H2119 H 0.31803 0.43583 0.27997
 H2120 H 0.27035 0.41946 0.30457
 H2121 H 0.25975 0.43846 0.29477
 H2122 H 0.30864 0.45288 0.27213
 H2123 H 0.29636 0.47130 0.26224
 H2124 H 0.25988 0.45807 0.28072
 C2125 C 0.31536 -0.09472 0.79236
 C2126 C 0.30476 -0.08699 0.79789
 C2127 C 0.30023 -0.09066 0.81068
 C2128 C 0.30567 -0.10196 0.81726
 C2129 C 0.31596 -0.10979 0.81153
 C2130 C 0.32084 -0.10584 0.79907
 C2131 C 0.29022 -0.08309 0.81689
 C2132 C 0.28453 -0.07190 0.81071
 C2133 C 0.28845 -0.06793 0.79787
 C2134 C 0.29853 -0.07578 0.79123
 C2135 C 0.30178 -0.07237 0.77804
 C2136 C 0.29542 -0.06174 0.77154
 C2137 C 0.28577 -0.05387 0.77793
 C2138 C 0.28234 -0.05662 0.79129
 C2139 C 0.27287 -0.04791 0.79746
 C2140 C 0.26668 -0.03742 0.79046
 C2141 C 0.26972 -0.03523 0.77716
 C2142 C 0.27938 -0.04333 0.77097
 H2143 H 0.31978 -0.09240 0.78292
 H2144 H 0.30187 -0.10446 0.82698
 H2145 H 0.32882 -0.11140 0.79424
 H2146 H 0.28672 -0.08584 0.82668
 H2147 H 0.27676 -0.06679 0.81620
 H2148 H 0.30898 -0.07800 0.77228
 H2149 H 0.29810 -0.05966 0.76134
 H2150 H 0.27005 -0.04886 0.80770
 H2151 H 0.25931 -0.03108 0.79537
 H2152 H 0.28179 -0.04148 0.76066
 C2153 C 0.79263 0.40838 0.81519
 C2154 C 0.79813 0.41524 0.80416
 C2155 C 0.81060 0.41050 0.79920
 C2156 C 0.81694 0.39910 0.80480
 C2157 C 0.81120 0.39217 0.81557
 C2158 C 0.79903 0.39713 0.82074
 C2159 C 0.81672 0.41714 0.78862
 C2160 C 0.81075 0.42838 0.78277
 C2161 C 0.79821 0.43339 0.78716
 C2162 C 0.79169 0.42658 0.79791
 C2163 C 0.77883 0.43113 0.80185
 C2164 C 0.77252 0.44191 0.79556
 C2165 C 0.77878 0.44874 0.78521
 C2166 C 0.79182 0.44479 0.78097
 C2167 C 0.79783 0.45240 0.77063
 C2168 C 0.79094 0.46305 0.76451
 C2169 C 0.77795 0.46648 0.76851
 C2170 C 0.77195 0.45944 0.77893
 H2171 H 0.78342 0.41147 0.81990
 H2172 H 0.82641 0.39573 0.80067
 H2173 H 0.79420 0.39234 0.82908
 H2174 H 0.82628 0.41358 0.78478
 H2175 H 0.81615 0.43275 0.77460
 H2176 H 0.77314 0.42639 0.80963
 H2177 H 0.76256 0.44491 0.79883
 H2178 H 0.80782 0.45042 0.76701
 H2179 H 0.79568 0.46852 0.75647
 H2180 H 0.76186 0.46221 0.78200
 C2181 C 0.81327 -0.09284 0.29338
 C2182 C 0.80343 -0.08462 0.29953
 C2183 C 0.79943 -0.08819 0.31252
 C2184 C 0.80471 -0.09980 0.31875
 C2185 C 0.81412 -0.10817 0.31232
 C2186 C 0.81845 -0.10433 0.29964
 C2187 C 0.79004 -0.08026 0.31922
 C2188 C 0.78430 -0.06895 0.31327
 C2189 C 0.78763 -0.06514 0.30021
 C2190 C 0.79737 -0.07310 0.29322
 C2191 C 0.80050 -0.06948 0.28006
 C2192 C 0.79419 -0.05866 0.27383
 C2193 C 0.78462 -0.05090 0.28043
 C2194 C 0.78133 -0.05381 0.29379
 C2195 C 0.77173 -0.04533 0.30007
 C2196 C 0.76542 -0.03479 0.29320
 C2197 C 0.76848 -0.03236 0.27994
 C2198 C 0.77818 -0.04030 0.27363
 H2199 H 0.81723 -0.09075 0.28369
 H2200 H 0.80129 -0.10228 0.32861
 H2201 H 0.82583 -0.11021 0.29428
 H2202 H 0.78699 -0.08288 0.32919
 H2203 H 0.77706 -0.06354 0.31916
 H2204 H 0.80764 -0.07496 0.27411
 H2205 H 0.79679 -0.05641 0.26365
 H2206 H 0.76878 -0.04654 0.31023
 H2207 H 0.75796 -0.02862 0.29818
 H2208 H 0.78055 -0.03828 0.26335
 C2209 C 0.28943 0.59674 0.68569
 C2210 C 0.29644 0.58752 0.69398
 C2211 C 0.31037 0.58978 0.69595
 C2212 C 0.31679 0.60099 0.69015
 C2213 C 0.30962 0.61018 0.68225
 C2214 C 0.29594 0.60784 0.67996
 C2215 C 0.31788 0.58094 0.70378
 C2216 C 0.31188 0.56988 0.70988
 C2217 C 0.29800 0.56725 0.70848
 C2218 C 0.29013 0.57623 0.70042
 C2219 C 0.27619 0.57376 0.69925
 C2220 C 0.27009 0.56302 0.70577
 C2221 C 0.27758 0.55421 0.71365
 C2222 C 0.29167 0.55604 0.71504
 C2223 C 0.29877 0.54659 0.72304
 C2224 C 0.29207 0.53609 0.72956
 C2225 C 0.27817 0.53463 0.72831
 C2226 C 0.27099 0.54362 0.72026
 H2227 H 0.27889 0.59575 0.68342
 H2228 H 0.32745 0.60250 0.69182
 H2229 H 0.29011 0.61475 0.67391
 H2230 H 0.32855 0.58261 0.70528
 H2231 H 0.31846 0.56369 0.71581
 H2232 H 0.26957 0.58007 0.69347
 H2233 H 0.25933 0.56163 0.70467
 H2234 H 0.30948 0.54700 0.72453
 H2235 H 0.29774 0.52914 0.73574
 H2236 H 0.26019 0.54238 0.71928
 C2237 C 0.29537 1.09274 0.18327
 C2238 C 0.30035 1.08606 0.19465
 C2239 C 0.31176 1.09176 0.20098
 C2240 C 0.31776 1.10367 0.19607
 C2241 C 0.31251 1.11027 0.18491
 C2242 C 0.30134 1.10458 0.17854
 C2243 C 0.31705 1.08565 0.21229
 C2244 C 0.31107 1.07420 0.21773
 C2245 C 0.29951 1.06829 0.21201
 C2246 C 0.29428 1.07411 0.20007
 C2247 C 0.28309 1.06784 0.19401
 C2248 C 0.27690 1.05661 0.19959
 C2249 C 0.28150 1.05118 0.21146
 C2250 C 0.29291 1.05683 0.21787
 C2251 C 0.29699 1.05094 0.23004
 C2252 C 0.28984 1.04016 0.23563
 C2253 C 0.27857 1.03485 0.22924
 C2254 C 0.27454 1.04023 0.21710
 H2255 H 0.28673 1.08927 0.17782
 H2256 H 0.32636 1.10794 0.20116
 H2257 H 0.29710 1.10925 0.16980
 H2258 H 0.32585 1.08988 0.21710
 H2259 H 0.31583 1.07021 0.22647
 H2260 H 0.27879 1.07133 0.18485
 H2261 H 0.26825 1.05226 0.19463
 H2262 H 0.30544 1.05458 0.23567
 H2263 H 0.29299 1.03607 0.24509
 H2264 H 0.26571 1.03611 0.21226
 C2265 C 0.78994 0.59570 0.18485
 C2266 C 0.79675 0.58709 0.19389
 C2267 C 0.81047 0.58994 0.19653
 C2268 C 0.81679 0.60125 0.19079
 C2269 C 0.80974 0.60992 0.18225
 C2270 C 0.79635 0.60688 0.17917
 C2271 C 0.81782 0.58162 0.20502
 C2272 C 0.81186 0.57057 0.21117
 C2273 C 0.79814 0.56744 0.20920
 C2274 C 0.79043 0.57588 0.20046
 C2275 C 0.77661 0.57303 0.19883
 C2276 C 0.77046 0.56247 0.20559
 C2277 C 0.77780 0.55418 0.21412
 C2278 C 0.79179 0.55635 0.21591
 C2279 C 0.79878 0.54734 0.22446
 C2280 C 0.79204 0.53701 0.23119
 C2281 C 0.77820 0.53530 0.22963
 C2282 C 0.77114 0.54378 0.22100
 H2283 H 0.77964 0.59415 0.18195
 H2284 H 0.82725 0.60329 0.19304
 H2285 H 0.79064 0.61334 0.17256
 H2286 H 0.82833 0.58372 0.20702
 H2287 H 0.81829 0.56482 0.21765
 H2288 H 0.77011 0.57897 0.19257
 H2289 H 0.75978 0.56081 0.20415
 H2290 H 0.80944 0.54796 0.22621
 H2291 H 0.79762 0.53042 0.23780
 H2292 H 0.76040 0.54233 0.21975
 C2293 C 0.81587 1.09570 0.70642
 C2294 C 0.80558 1.08767 0.70075
 C2295 C 0.80048 1.09173 0.68825
 C2296 C 0.80569 1.10323 0.68174
 C2297 C 0.81597 1.11099 0.68750
 C2298 C 0.82092 1.10707 0.69991
 C2299 C 0.79015 1.08435 0.68232
 C2300 C 0.78457 1.07313 0.68858
 C2301 C 0.78918 1.06871 0.70108
 C2302 C 0.80008 1.07592 0.70712
 C2303 C 0.80515 1.07113 0.71932
 C2304 C 0.79954 1.06001 0.72565
 C2305 C 0.78862 1.05319 0.72017
 C2306 C 0.78327 1.05735 0.70779
 C2307 C 0.77205 1.05006 0.70281
 C2308 C 0.76636 1.03936 0.70995
 C2309 C 0.77170 1.03551 0.72217
 C2310 C 0.78289 1.04234 0.72718
 H2311 H 0.82015 1.09365 0.71599
 H2312 H 0.80172 1.10608 0.67215
 H2313 H 0.82865 1.11290 0.70483
 H2314 H 0.78625 1.08734 0.67274
 H2315 H 0.77664 1.06807 0.68326
 H2316 H 0.81358 1.07570 0.72430
 H2317 H 0.80373 1.05680 0.73505
 H2318 H 0.76723 1.05252 0.69358
 H2319 H 0.75761 1.03418 0.70605
 H2320 H 0.78692 1.03937 0.73673
 C2321 C 0.68701 0.59839 0.29206
 C2322 C 0.69574 0.58914 0.29851
 C2323 C 0.69831 0.59128 0.31215
 C2324 C 0.69265 0.60243 0.31882
 C2325 C 0.68418 0.61156 0.31220
 C2326 C 0.68137 0.60935 0.29881
 C2327 C 0.70654 0.58231 0.31911
 C2328 C 0.71236 0.57122 0.31287
 C2329 C 0.71030 0.56869 0.29927
 C2330 C 0.70198 0.57790 0.29193
 C2331 C 0.70038 0.57571 0.27821
 C2332 C 0.70668 0.56498 0.27185
 C2333 C 0.71470 0.55588 0.27884
 C2334 C 0.71649 0.55741 0.29269
 C2335 C 0.72448 0.54760 0.29932
 C2336 C 0.73075 0.53709 0.29239
 C2337 C 0.72925 0.53600 0.27871
 C2338 C 0.72109 0.54528 0.27199
 H2339 H 0.68423 0.59747 0.28181
 H2340 H 0.69475 0.60388 0.32924
 H2341 H 0.67490 0.61623 0.29338
 H2342 H 0.70854 0.58389 0.32953
 H2343 H 0.71865 0.56493 0.31900
 H2344 H 0.69448 0.58227 0.27197
 H2345 H 0.70526 0.56383 0.26127
 H2346 H 0.72612 0.54769 0.30984
 H2347 H 0.73696 0.52988 0.29770
 H2348 H 0.71986 0.54431 0.26138
 C2349 C 0.70539 1.09387 0.81413
 C2350 C 0.69978 1.08696 0.80322
 C2351 C 0.68760 1.09209 0.79787
 C2352 C 0.68140 1.10367 0.80337
 C2353 C 0.68711 1.11041 0.81428
 C2354 C 0.69920 1.10526 0.81949
 C2355 C 0.68168 1.08567 0.78705
 C2356 C 0.68762 1.07433 0.78130
 C2357 C 0.69981 1.06888 0.78618
 C2358 C 0.70592 1.07523 0.79741
 C2359 C 0.71800 1.06970 0.80245
 C2360 C 0.72409 1.05859 0.79662
 C2361 C 0.71846 1.05245 0.78555
 C2362 C 0.70618 1.05736 0.78017
 C2363 C 0.70098 1.05059 0.76888
 C2364 C 0.70790 1.03973 0.76311
 C2365 C 0.72007 1.03524 0.76845
 C2366 C 0.72522 1.04150 0.77972
 H2367 H 0.71464 1.09087 0.81881
 H2368 H 0.67209 1.10732 0.79908
 H2369 H 0.70419 1.10998 0.82777
 H2370 H 0.67235 1.08949 0.78292
 H2371 H 0.68236 1.07008 0.77297
 H2372 H 0.72315 1.07372 0.81094
 H2373 H 0.73343 1.05481 0.80078
 H2374 H 0.69173 1.05353 0.76414
 H2375 H 0.70385 1.03494 0.75433
 H2376 H 0.73472 1.03799 0.78377
 C2377 C 0.18676 0.59745 0.78967
 C2378 C 0.19527 0.58793 0.79603
 C2379 C 0.19784 0.58982 0.80970
 C2380 C 0.19235 0.60096 0.81651
 C2381 C 0.18407 0.61034 0.80999
 C2382 C 0.18129 0.60841 0.79655
 C2383 C 0.20589 0.58060 0.81655
 C2384 C 0.21150 0.56949 0.81017
 C2385 C 0.20940 0.56718 0.79654
 C2386 C 0.20130 0.57667 0.78931
 C2387 C 0.19966 0.57469 0.77557
 C2388 C 0.20574 0.56392 0.76907
 C2389 C 0.21356 0.55456 0.77596
 C2390 C 0.21536 0.55587 0.78983
 C2391 C 0.22314 0.54579 0.79634
 C2392 C 0.22922 0.53528 0.78927
 C2393 C 0.22773 0.53444 0.77557
 C2394 C 0.21976 0.54397 0.76898
 H2395 H 0.18402 0.59676 0.77940
 H2396 H 0.19443 0.60221 0.82696
 H2397 H 0.17499 0.61550 0.79120
 H2398 H 0.20790 0.58199 0.82700
 H2399 H 0.21766 0.56299 0.81624
 H2400 H 0.19390 0.58145 0.76940
 H2401 H 0.20433 0.56295 0.75848
 H2402 H 0.22476 0.54570 0.80687
 H2403 H 0.23531 0.52787 0.79448
 H2404 H 0.21857 0.54320 0.75834
 C2405 C 0.21084 1.09627 0.31669
 C2406 C 0.20478 1.08743 0.30739
 C2407 C 0.19126 1.09009 0.30373
 C2408 C 0.18435 1.10133 0.30893
 C2409 C 0.19060 1.11008 0.31795
 C2410 C 0.20385 1.10736 0.32184
 C2411 C 0.18466 1.08158 0.29486
 C2412 C 0.19116 1.07044 0.28942
 C2413 C 0.20468 1.06739 0.29256
 C2414 C 0.21165 1.07611 0.30160
 C2415 C 0.22532 1.07337 0.30435
 C2416 C 0.23201 1.06260 0.29845
 C2417 C 0.22537 1.05401 0.28968
 C2418 C 0.21155 1.05609 0.28676
 C2419 C 0.20526 1.04677 0.27803
 C2420 C 0.21255 1.03628 0.27215
 C2421 C 0.22624 1.03469 0.27477
 C2422 C 0.23257 1.04342 0.28368
 H2423 H 0.22095 1.09494 0.32027
 H2424 H 0.17403 1.10317 0.30600
 H2425 H 0.20898 1.11392 0.32877
 H2426 H 0.17432 1.08357 0.29203
 H2427 H 0.18531 1.06454 0.28257
 H2428 H 0.23131 1.07951 0.31088
 H2429 H 0.24255 1.06103 0.30073
 H2430 H 0.19476 1.04727 0.27550
 H2431 H 0.20753 1.02948 0.26532
 H2432 H 0.24320 1.04206 0.28576
 C2433 C 0.68791 0.40308 0.70639
 C2434 C 0.69695 0.41196 0.69990
 C2435 C 0.69995 0.40927 0.68645
 C2436 C 0.69436 0.39794 0.67999
 C2437 C 0.68552 0.38921 0.68664
 C2438 C 0.68234 0.39196 0.69985
 C2439 C 0.70849 0.41789 0.67946
 C2440 C 0.71415 0.42920 0.68548
 C2441 C 0.71163 0.43229 0.69888
 C2442 C 0.70307 0.42339 0.70628
 C2443 C 0.70109 0.42609 0.71986
 C2444 C 0.70720 0.43703 0.72602
 C2445 C 0.71540 0.44588 0.71895
 C2446 C 0.71761 0.44382 0.70523
 C2447 C 0.72576 0.45342 0.69850
 C2448 C 0.73179 0.46420 0.70525
 C2449 C 0.72988 0.46579 0.71884
 C2450 C 0.72156 0.45672 0.72561
 H2451 H 0.68479 0.40444 0.71649
 H2452 H 0.69676 0.39607 0.66971
 H2453 H 0.67559 0.38540 0.70530
 H2454 H 0.71083 0.41588 0.66918
 H2455 H 0.72069 0.43520 0.67934
 H2456 H 0.69504 0.41975 0.72616
 H2457 H 0.70550 0.43857 0.73651
 H2458 H 0.72769 0.45293 0.68804
 H2459 H 0.73815 0.47122 0.69989
 H2460 H 0.72004 0.45806 0.73615
 C2461 C 0.70991 -0.09340 0.18608
 C2462 C 0.70291 -0.08483 0.19496
 C2463 C 0.68924 -0.08793 0.19757
 C2464 C 0.68308 -0.09930 0.19176
 C2465 C 0.69027 -0.10786 0.18323
 C2466 C 0.70369 -0.10467 0.18038
 C2467 C 0.68177 -0.07975 0.20608
 C2468 C 0.68755 -0.06858 0.21221
 C2469 C 0.70117 -0.06513 0.21012
 C2470 C 0.70900 -0.07342 0.20138
 C2471 C 0.72270 -0.07015 0.19954
 C2472 C 0.72864 -0.05935 0.20611
 C2473 C 0.72120 -0.05124 0.21467
 C2474 C 0.70730 -0.05381 0.21667
 C2475 C 0.70019 -0.04496 0.22526
 C2476 C 0.70675 -0.03440 0.23183
 C2477 C 0.72050 -0.03230 0.23005
 C2478 C 0.72766 -0.04061 0.22137
 H2479 H 0.72023 -0.09178 0.18330
 H2480 H 0.67264 -0.10144 0.19395
 H2481 H 0.70959 -0.11097 0.17383
 H2482 H 0.67132 -0.08207 0.20812
 H2483 H 0.68105 -0.06298 0.21872
 H2484 H 0.72928 -0.07588 0.19320
 H2485 H 0.73924 -0.05737 0.20449
 H2486 H 0.68959 -0.04590 0.22719
 H2487 H 0.70110 -0.02795 0.23850
 H2488 H 0.73834 -0.03886 0.21998
 C2489 C 0.20949 0.40662 0.17950
 C2490 C 0.20431 0.41406 0.19034
 C2491 C 0.19232 0.40925 0.19628
 C2492 C 0.18579 0.39766 0.19138
 C2493 C 0.19103 0.39043 0.18061
 C2494 C 0.20296 0.39506 0.17477
 C2495 C 0.18687 0.41598 0.20714
 C2496 C 0.19321 0.42723 0.21251
 C2497 C 0.20529 0.43235 0.20713
 C2498 C 0.21071 0.42592 0.19561
 C2499 C 0.22229 0.43159 0.18971
 C2500 C 0.22864 0.44285 0.19510
 C2501 C 0.22385 0.44884 0.20664
 C2502 C 0.21212 0.44371 0.21288
 C2503 C 0.20792 0.44999 0.22479
 C2504 C 0.21512 0.46078 0.23022
 C2505 C 0.22663 0.46571 0.22396
 C2506 C 0.23089 0.45984 0.21211
 H2507 H 0.21870 0.40929 0.17455
 H2508 H 0.17660 0.39431 0.19607
 H2509 H 0.20742 0.38971 0.16653
 H2510 H 0.17763 0.41242 0.21165
 H2511 H 0.18824 0.43179 0.22085
 H2512 H 0.22668 0.42765 0.18078
 H2513 H 0.23753 0.44680 0.19024
 H2514 H 0.19933 0.44664 0.23037
 H2515 H 0.21183 0.46520 0.23948
 H2516 H 0.23992 0.46364 0.20738
 C2517 C 0.20854 -0.09764 0.68559
 C2518 C 0.20178 -0.08888 0.69449
 C2519 C 0.18804 -0.09162 0.69712
 C2520 C 0.18158 -0.10283 0.69132
 C2521 C 0.18850 -0.11147 0.68266
 C2522 C 0.20200 -0.10868 0.67982
 C2523 C 0.18077 -0.08317 0.70555
 C2524 C 0.18678 -0.07200 0.71147
 C2525 C 0.20046 -0.06885 0.70932
 C2526 C 0.20814 -0.07756 0.70084
 C2527 C 0.22197 -0.07478 0.69915
 C2528 C 0.22812 -0.06395 0.70551
 C2529 C 0.22078 -0.05531 0.71367
 C2530 C 0.20680 -0.05746 0.71556
 C2531 C 0.19980 -0.04809 0.72370
 C2532 C 0.20653 -0.03745 0.72999
 C2533 C 0.22037 -0.03576 0.72837
 C2534 C 0.22743 -0.04459 0.72008
 H2535 H 0.21889 -0.09624 0.68277
 H2536 H 0.17107 -0.10471 0.69347
 H2537 H 0.20766 -0.11515 0.67321
 H2538 H 0.17026 -0.08521 0.70762
 H2539 H 0.18041 -0.06614 0.71791
 H2540 H 0.22848 -0.08095 0.69314
 H2541 H 0.23881 -0.06235 0.70402
 H2542 H 0.18914 -0.04866 0.72544
 H2543 H 0.20095 -0.03061 0.73633
 H2544 H 0.23816 -0.04319 0.71878
 C2545 C 0.29034 0.31105 0.40363
 C2546 C 0.29724 0.30257 0.41269
 C2547 C 0.31115 0.30030 0.41049
 C2548 C 0.31767 0.30610 0.39953
 C2549 C 0.31062 0.31438 0.39063
 C2550 C 0.29694 0.31682 0.39285
 C2551 C 0.31852 0.29225 0.41921
 C2552 C 0.31243 0.28632 0.43012
 C2553 C 0.29859 0.28810 0.43273
 C2554 C 0.29084 0.29627 0.42380
 C2555 C 0.27690 0.29771 0.42615
 C2556 C 0.27071 0.29136 0.43676
 C2557 C 0.27810 0.28343 0.44555
 C2558 C 0.29217 0.28179 0.44383
 C2559 C 0.29917 0.27382 0.45329
 C2560 C 0.29236 0.26741 0.46363
 C2561 C 0.27845 0.26878 0.46490
 C2562 C 0.27139 0.27695 0.45598
 H2563 H 0.27984 0.31353 0.40455
 H2564 H 0.32831 0.30427 0.39804
 H2565 H 0.29117 0.32309 0.38612
 H2566 H 0.32916 0.29048 0.41759
 H2567 H 0.31890 0.28019 0.43624
 H2568 H 0.27035 0.30353 0.41985
 H2569 H 0.25996 0.29265 0.43806
 H2570 H 0.30989 0.27226 0.45301
 H2571 H 0.29794 0.26117 0.47055
 H2572 H 0.26059 0.27806 0.45709
 C2573 C 0.28941 0.81542 -0.09634
 C2574 C 0.29578 0.80622 -0.08755
 C2575 C 0.30938 0.80278 -0.09014
 C2576 C 0.31607 0.80808 -0.10123
 C2577 C 0.30953 0.81699 -0.10992
 C2578 C 0.29619 0.82067 -0.10729
 C2579 C 0.31627 0.79402 -0.08168
 C2580 C 0.30999 0.78848 -0.07070
 C2581 C 0.29640 0.79137 -0.06774
 C2582 C 0.28914 0.80030 -0.07637
 C2583 C 0.27542 0.80281 -0.07368
 C2584 C 0.26894 0.79671 -0.06308
 C2585 C 0.27585 0.78801 -0.05461
 C2586 C 0.28974 0.78537 -0.05662
 C2587 C 0.29631 0.77671 -0.04743
 C2588 C 0.28922 0.77054 -0.03715
 C2589 C 0.27545 0.77281 -0.03564
 C2590 C 0.26885 0.78174 -0.04422
 H2591 H 0.27921 0.81883 -0.09508
 H2592 H 0.32646 0.80531 -0.10301
 H2593 H 0.29083 0.82750 -0.11381
 H2594 H 0.32667 0.79137 -0.08361
 H2595 H 0.31607 0.78172 -0.06483
 H2596 H 0.26923 0.80927 -0.07974
 H2597 H 0.25835 0.79879 -0.06156
 H2598 H 0.30688 0.77442 -0.04789
 H2599 H 0.29445 0.76373 -0.03047
 H2600 H 0.25817 0.78357 -0.04291
 C2601 C 0.79128 0.31013 -0.09847
 C2602 C 0.79836 0.30222 -0.08908
 C2603 C 0.81224 0.29984 -0.09140
 C2604 C 0.81866 0.30541 -0.10256
 C2605 C 0.81150 0.31349 -0.11155
 C2606 C 0.79775 0.31566 -0.10942
 C2607 C 0.81967 0.29198 -0.08254
 C2608 C 0.81367 0.28635 -0.07142
 C2609 C 0.79989 0.28840 -0.06861
 C2610 C 0.79214 0.29656 -0.07755
 C2611 C 0.77842 0.29884 -0.07465
 C2612 C 0.77237 0.29313 -0.06365
 C2613 C 0.77966 0.28494 -0.05502
 C2614 C 0.79356 0.28251 -0.05723
 C2615 C 0.80042 0.27413 -0.04800
 C2616 C 0.79363 0.26817 -0.03738
 C2617 C 0.77988 0.27039 -0.03559
 C2618 C 0.77301 0.27899 -0.04427
 H2619 H 0.78069 0.31227 -0.09776
 H2620 H 0.82931 0.30367 -0.10409
 H2621 H 0.79185 0.32158 -0.11633
 H2622 H 0.83028 0.29012 -0.08424
 H2623 H 0.82018 0.28041 -0.06517
 H2624 H 0.77196 0.30504 -0.08070
 H2625 H 0.76178 0.29508 -0.06194
 H2626 H 0.81097 0.27178 -0.04878
 H2627 H 0.79906 0.26154 -0.03069
 H2628 H 0.76234 0.28073 -0.04279
 C2629 C 0.79198 0.81277 0.40312
 C2630 C 0.79897 0.80388 0.41173
 C2631 C 0.81283 0.80162 0.40920
 C2632 C 0.81915 0.80765 0.39824
 C2633 C 0.81199 0.81625 0.38972
 C2634 C 0.79840 0.81882 0.39236
 C2635 C 0.82033 0.79334 0.41762
 C2636 C 0.81446 0.78724 0.42856
 C2637 C 0.80067 0.78899 0.43145
 C2638 C 0.79273 0.79722 0.42274
 C2639 C 0.77878 0.79829 0.42515
 C2640 C 0.77276 0.79165 0.43570
 C2641 C 0.78037 0.78382 0.44441
 C2642 C 0.79447 0.78254 0.44260
 C2643 C 0.80173 0.77479 0.45205
 C2644 C 0.79515 0.76823 0.46245
 C2645 C 0.78121 0.76918 0.46379
 C2646 C 0.77388 0.77711 0.45487
 H2647 H 0.78156 0.81541 0.40443
 H2648 H 0.82973 0.80576 0.39644
 H2649 H 0.79257 0.82540 0.38597
 H2650 H 0.83092 0.79156 0.41574
 H2651 H 0.82100 0.78093 0.43442
 H2652 H 0.77208 0.80397 0.41887
 H2653 H 0.76199 0.79264 0.43703
 H2654 H 0.81249 0.77362 0.45176
 H2655 H 0.80095 0.76220 0.46938
 H2656 H 0.76306 0.77792 0.45603
 C2657 C 0.68478 0.29271 0.59389
 C2658 C 0.69507 0.29856 0.58615
 C2659 C 0.70094 0.31080 0.59073
 C2660 C 0.69602 0.31725 0.60220
 C2661 C 0.68543 0.31150 0.60948
 C2662 C 0.68010 0.29905 0.60527
 C2663 C 0.71171 0.31651 0.58385
 C2664 C 0.71699 0.31017 0.57270
 C2665 C 0.71141 0.29801 0.56772
 C2666 C 0.69989 0.29247 0.57424
 C2667 C 0.69341 0.28115 0.56854
 C2668 C 0.69842 0.27492 0.55730
 C2669 C 0.71015 0.27959 0.55135
 C2670 C 0.71688 0.29120 0.55641
 C2671 C 0.72899 0.29521 0.55011
 C2672 C 0.73421 0.28782 0.53948
 C2673 C 0.72747 0.27639 0.53471
 C2674 C 0.71535 0.27247 0.54050
 H2675 H 0.68032 0.28302 0.59163
 H2676 H 0.70044 0.32674 0.60539
 H2677 H 0.67229 0.29397 0.61078
 H2678 H 0.71625 0.32589 0.58723
 H2679 H 0.72531 0.31524 0.56801
 H2680 H 0.68421 0.27695 0.57238
 H2681 H 0.69315 0.26619 0.55334
 H2682 H 0.73490 0.30370 0.55344
 H2683 H 0.74370 0.29085 0.53513
 H2684 H 0.71024 0.26350 0.53682
 C2685 C 0.71101 0.81079 1.09738
 C2686 C 0.70384 0.80311 1.08791
 C2687 C 0.69016 0.80014 1.09061
 C2688 C 0.68392 0.80515 1.10212
 C2689 C 0.69113 0.81304 1.11124
 C2690 C 0.70475 0.81564 1.10875
 C2691 C 0.68279 0.79216 1.08181
 C2692 C 0.68875 0.78682 1.07051
 C2693 C 0.70235 0.78945 1.06739
 C2694 C 0.70988 0.79811 1.07602
 C2695 C 0.72316 0.80158 1.07244
 C2696 C 0.72918 0.79625 1.06123
 C2697 C 0.72228 0.78720 1.05314
 C2698 C 0.70873 0.78370 1.05597
 C2699 C 0.70231 0.77433 1.04738
 C2700 C 0.70921 0.76852 1.03674
 C2701 C 0.72262 0.77191 1.03429
 C2702 C 0.72901 0.78143 1.04234
 H2703 H 0.72155 0.81307 1.09648
 H2704 H 0.67340 0.80294 1.10389
 H2705 H 0.71080 0.82141 1.11562
 H2706 H 0.67232 0.78987 1.08376
 H2707 H 0.68233 0.78074 1.06432
 H2708 H 0.72924 0.80857 1.07802
 H2709 H 0.73945 0.79912 1.05898
 H2710 H 0.69210 0.77100 1.04878
 H2711 H 0.70418 0.76111 1.03057
 H2712 H 0.73943 0.78401 1.04038
 C2713 C 0.18331 0.28940 1.09463
 C2714 C 0.19311 0.29542 1.08633
 C2715 C 0.19772 0.30858 1.08974
 C2716 C 0.19265 0.31530 1.10092
 C2717 C 0.18301 0.30915 1.10907
 C2718 C 0.17839 0.29616 1.10576
 C2719 C 0.20743 0.31499 1.08203
 C2720 C 0.21294 0.30856 1.07110
 C2721 C 0.20889 0.29538 1.06735
 C2722 C 0.19859 0.28881 1.07492
 C2723 C 0.19414 0.27586 1.07084
 C2724 C 0.19976 0.26935 1.06002
 C2725 C 0.21009 0.27539 1.05283
 C2726 C 0.21482 0.28851 1.05630
 C2727 C 0.22546 0.29405 1.04868
 C2728 C 0.23119 0.28677 1.03827
 C2729 C 0.22647 0.27384 1.03506
 C2730 C 0.21586 0.26824 1.04226
 H2731 H 0.17932 0.27939 1.09297
 H2732 H 0.19627 0.32539 1.10322
 H2733 H 0.17106 0.29102 1.11187
 H2734 H 0.21093 0.32509 1.08454
 H2735 H 0.22038 0.31429 1.06577
 H2736 H 0.18623 0.27041 1.07578
 H2737 H 0.19607 0.25937 1.05734
 H2738 H 0.22980 0.30386 1.05061
 H2739 H 0.23948 0.29114 1.03279
 H2740 H 0.21232 0.25815 1.03976
 C2741 C 0.18354 0.79115 0.59189
 C2742 C 0.19439 0.79667 0.58461
 C2743 C 0.20025 0.80884 0.58938
 C2744 C 0.19517 0.81527 0.60076
 C2745 C 0.18431 0.80970 0.60778
 C2746 C 0.17865 0.79755 0.60319
 C2747 C 0.21120 0.81453 0.58281
 C2748 C 0.21671 0.80829 0.57175
 C2749 C 0.21134 0.79609 0.56666
 C2750 C 0.19973 0.79042 0.57295
 C2751 C 0.19380 0.77874 0.56734
 C2752 C 0.19926 0.77249 0.55630
 C2753 C 0.21090 0.77750 0.55042
 C2754 C 0.21716 0.78937 0.55546
 C2755 C 0.22916 0.79379 0.54922
 C2756 C 0.23469 0.78661 0.53863
 C2757 C 0.22841 0.77493 0.53384
 C2758 C 0.21645 0.77051 0.53963
 H2759 H 0.17871 0.78175 0.58928
 H2760 H 0.19977 0.82460 0.60412
 H2761 H 0.17040 0.79278 0.60836
 H2762 H 0.21568 0.82389 0.58634
 H2763 H 0.22513 0.81342 0.56732
 H2764 H 0.18477 0.77418 0.57116
 H2765 H 0.19438 0.76350 0.55241
 H2766 H 0.23474 0.80254 0.55248
 H2767 H 0.24404 0.79004 0.53427
 H2768 H 0.21169 0.76135 0.53595
 C2769 C 0.31674 0.70884 0.59383
 C2770 C 0.30717 0.70245 0.58552
 C2771 C 0.30306 0.68911 0.58892
 C2772 C 0.30802 0.68276 0.60037
 C2773 C 0.31727 0.68936 0.60861
 C2774 C 0.32166 0.70238 0.60513
 C2775 C 0.29397 0.68217 0.58091
 C2776 C 0.28872 0.68815 0.56960
 C2777 C 0.29224 0.70150 0.56587
 C2778 C 0.30151 0.70883 0.57405
 C2779 C 0.30457 0.72240 0.57065
 C2780 C 0.29871 0.72867 0.55979
 C2781 C 0.28970 0.72168 0.55174
 C2782 C 0.28652 0.70791 0.55445
 C2783 C 0.27761 0.70123 0.54563
 C2784 C 0.27165 0.70817 0.53509
 C2785 C 0.27443 0.72188 0.53295
 C2786 C 0.28364 0.72853 0.54112
 H2787 H 0.32071 0.71881 0.59190
 H2788 H 0.30472 0.67258 0.60280
 H2789 H 0.32880 0.70776 0.61128
 H2790 H 0.29082 0.67195 0.58345
 H2791 H 0.28165 0.68208 0.56414
 H2792 H 0.31128 0.72864 0.57636
 H2793 H 0.30119 0.73917 0.55774
 H2794 H 0.27494 0.69069 0.54661
 H2795 H 0.26459 0.70290 0.52875
 H2796 H 0.28582 0.73917 0.53934
 C2797 C 0.29084 0.18609 1.09651
 C2798 C 0.29755 0.19460 1.08739
 C2799 C 0.31086 0.19866 1.09051
 C2800 C 0.31713 0.19414 1.10220
 C2801 C 0.31031 0.18567 1.11112
 C2802 C 0.29712 0.18175 1.10809
 C2803 C 0.31783 0.20730 1.08201
 C2804 C 0.31179 0.21234 1.07063
 C2805 C 0.29849 0.20879 1.06716
 C2806 C 0.29142 0.19942 1.07546
 C2807 C 0.27842 0.19521 1.07158
 C2808 C 0.27225 0.20043 1.06040
 C2809 C 0.27869 0.21009 1.05262
 C2810 C 0.29195 0.21437 1.05573
 C2811 C 0.29791 0.22431 1.04744
 C2812 C 0.29082 0.22995 1.03683
 C2813 C 0.27768 0.22581 1.03411
 C2814 C 0.27176 0.21571 1.04184
 H2815 H 0.28065 0.18271 1.09517
 H2816 H 0.32731 0.19736 1.10434
 H2817 H 0.29146 0.17524 1.11465
 H2818 H 0.32805 0.21037 1.08429
 H2819 H 0.31789 0.21902 1.06472
 H2820 H 0.27267 0.18779 1.07697
 H2821 H 0.26219 0.19701 1.05793
 H2822 H 0.30789 0.22822 1.04904
 H2823 H 0.29547 0.23780 1.03089
 H2824 H 0.26154 0.21258 1.03968
 C2825 C 0.81702 0.70864 1.09392
 C2826 C 0.80676 0.70269 1.08610
 C2827 C 0.80171 0.68990 1.09019
 C2828 C 0.80668 0.68354 1.10164
 C2829 C 0.81672 0.68966 1.10933
 C2830 C 0.82187 0.70222 1.10528
 C2831 C 0.79166 0.68351 1.08289
 C2832 C 0.78627 0.68958 1.07169
 C2833 C 0.79073 0.70242 1.06728
 C2834 C 0.80127 0.70901 1.07451
 C2835 C 0.80588 0.72175 1.06998
 C2836 C 0.80022 0.72802 1.05901
 C2837 C 0.78976 0.72190 1.05206
 C2838 C 0.78490 0.70897 1.05597
 C2839 C 0.77421 0.70328 1.04849
 C2840 C 0.76847 0.71034 1.03790
 C2841 C 0.77324 0.72315 1.03435
 C2842 C 0.78397 0.72883 1.04133
 H2843 H 0.82148 0.71832 1.09165
 H2844 H 0.80269 0.67374 1.10451
 H2845 H 0.82955 0.70729 1.11102
 H2846 H 0.78781 0.67369 1.08592
 H2847 H 0.77852 0.68390 1.06674
 H2848 H 0.81385 0.72729 1.07474
 H2849 H 0.80402 0.73787 1.05602
 H2850 H 0.76986 0.69353 1.05064
 H2851 H 0.76010 0.70589 1.03259
 H2852 H 0.78757 0.73883 1.03857
 C2853 C 0.81217 0.20838 0.59630
 C2854 C 0.80293 0.20170 0.58788
 C2855 C 0.79937 0.18814 0.59110
 C2856 C 0.80485 0.18172 0.60234
 C2857 C 0.81406 0.18852 0.61048
 C2858 C 0.81759 0.20189 0.60732
 C2859 C 0.79042 0.18104 0.58307
 C2860 C 0.78488 0.18703 0.57187
 C2861 C 0.78800 0.20052 0.56824
 C2862 C 0.79711 0.20801 0.57645
 C2863 C 0.80002 0.22160 0.57302
 C2864 C 0.79421 0.22774 0.56209
 C2865 C 0.78533 0.22064 0.55403
 C2866 C 0.78218 0.20688 0.55682
 C2867 C 0.77323 0.20016 0.54806
 C2868 C 0.76735 0.20701 0.53740
 C2869 C 0.77023 0.22068 0.53510
 C2870 C 0.77940 0.22737 0.54328
 H2871 H 0.81554 0.21863 0.59469
 H2872 H 0.80209 0.17134 0.60462
 H2873 H 0.82452 0.20753 0.61348
 H2874 H 0.78765 0.17068 0.58546
 H2875 H 0.77801 0.18080 0.56631
 H2876 H 0.80668 0.22796 0.57868
 H2877 H 0.79665 0.23825 0.55998
 H2878 H 0.77045 0.18966 0.54920
 H2879 H 0.76029 0.20171 0.53109
 H2880 H 0.78165 0.23798 0.54140
 C2881 C 0.69150 0.70870 0.40241
 C2882 C 0.69955 0.70133 0.41148
 C2883 C 0.70137 0.68725 0.40910
 C2884 C 0.69546 0.68100 0.39802
 C2885 C 0.68750 0.68849 0.38921
 C2886 C 0.68561 0.70237 0.39154
 C2887 C 0.70902 0.67945 0.41781
 C2888 C 0.71496 0.68525 0.42888
 C2889 C 0.71357 0.69923 0.43168
 C2890 C 0.70582 0.70743 0.42276
 C2891 C 0.70471 0.72148 0.42535
 C2892 C 0.71100 0.72738 0.43614
 C2893 C 0.71856 0.71958 0.44489
 C2894 C 0.71985 0.70536 0.44296
 C2895 C 0.72748 0.69795 0.45239
 C2896 C 0.73391 0.70451 0.46289
 C2897 C 0.73289 0.71857 0.46437
 C2898 C 0.72504 0.72601 0.45549
 H2899 H 0.68944 0.71938 0.40340
 H2900 H 0.69689 0.67021 0.39639
 H2901 H 0.67964 0.70849 0.38485
 H2902 H 0.71044 0.66868 0.41606
 H2903 H 0.72075 0.67846 0.43498
 H2904 H 0.69918 0.72836 0.41912
 H2905 H 0.70998 0.73824 0.43761
 H2906 H 0.72878 0.68711 0.45194
 H2907 H 0.73992 0.69862 0.46977
 H2908 H 0.72422 0.73693 0.45673
 C2909 C 0.70795 0.18321 -0.09349
 C2910 C 0.70256 0.19398 -0.08595
 C2911 C 0.69066 0.20030 -0.09065
 C2912 C 0.68422 0.19553 -0.10215
 C2913 C 0.68958 0.18462 -0.10935
 C2914 C 0.70158 0.17866 -0.10491
 C2915 C 0.68528 0.21138 -0.08389
 C2916 C 0.69161 0.21657 -0.07273
 C2917 C 0.70351 0.21067 -0.06768
 C2918 C 0.70875 0.19884 -0.07409
 C2919 C 0.71991 0.19217 -0.06838
 C2920 C 0.72622 0.19723 -0.05721
 C2921 C 0.72179 0.20920 -0.05133
 C2922 C 0.71037 0.21614 -0.05642
 C2923 C 0.70658 0.22847 -0.05020
 C2924 C 0.71400 0.23369 -0.03963
 C2925 C 0.72524 0.22675 -0.03484
 C2926 C 0.72896 0.21442 -0.04054
 H2927 H 0.71728 0.17822 -0.09105
 H2928 H 0.67505 0.20040 -0.10546
 H2929 H 0.70626 0.17043 -0.11025
 H2930 H 0.67613 0.21622 -0.08737
 H2931 H 0.68677 0.22514 -0.06815
 H2932 H 0.72396 0.18282 -0.07219
 H2933 H 0.73483 0.19182 -0.05325
 H2934 H 0.69823 0.23455 -0.05353
 H2935 H 0.71112 0.24334 -0.03533
 H2936 H 0.73779 0.20916 -0.03684
 C2937 C 0.20618 0.68193 -0.09457
 C2938 C 0.20083 0.69267 -0.08693
 C2939 C 0.18865 0.69869 -0.09132
 C2940 C 0.18203 0.69380 -0.10267
 C2941 C 0.18740 0.68300 -0.11002
 C2942 C 0.19958 0.67723 -0.10583
 C2943 C 0.18316 0.70960 -0.08439
 C2944 C 0.18959 0.71488 -0.07333
 C2945 C 0.20177 0.70931 -0.06857
 C2946 C 0.20726 0.69775 -0.07525
 C2947 C 0.21893 0.69158 -0.06999
 C2948 C 0.22535 0.69679 -0.05893
 C2949 C 0.22052 0.70839 -0.05268
 C2950 C 0.20866 0.71487 -0.05734
 C2951 C 0.20442 0.72682 -0.05072
 C2952 C 0.21178 0.73212 -0.04013
 C2953 C 0.22346 0.72564 -0.03574
 C2954 C 0.22769 0.71370 -0.04190
 H2955 H 0.21559 0.67704 -0.09230
 H2956 H 0.17267 0.69847 -0.10574
 H2957 H 0.20425 0.66907 -0.11131
 H2958 H 0.17382 0.71422 -0.08764
 H2959 H 0.18462 0.72330 -0.06861
 H2960 H 0.22335 0.68255 -0.07411
 H2961 H 0.23433 0.69174 -0.05533
 H2962 H 0.19568 0.73254 -0.05366
 H2963 H 0.20849 0.74146 -0.03550
 H2964 H 0.23685 0.70881 -0.03853
 C2965 C 0.18505 0.21016 0.40372
 C2966 C 0.19328 0.20302 0.41285
 C2967 C 0.19538 0.18898 0.41058
 C2968 C 0.18989 0.18261 0.39941
 C2969 C 0.18212 0.18991 0.39030
 C2970 C 0.17959 0.20367 0.39267
 C2971 C 0.20303 0.18131 0.41938
 C2972 C 0.20885 0.18726 0.43041
 C2973 C 0.20737 0.20126 0.43303
 C2974 C 0.19955 0.20931 0.42405
 C2975 C 0.19854 0.22341 0.42638
 C2976 C 0.20505 0.22949 0.43697
 C2977 C 0.21267 0.22181 0.44580
 C2978 C 0.21375 0.20754 0.44416
 C2979 C 0.22131 0.20021 0.45369
 C2980 C 0.22794 0.20687 0.46397
 C2981 C 0.22722 0.22096 0.46514
 C2982 C 0.21941 0.22838 0.45618
 H2983 H 0.18261 0.22075 0.40479
 H2984 H 0.19168 0.17187 0.39786
 H2985 H 0.17357 0.20956 0.38582
 H2986 H 0.20463 0.17056 0.41770
 H2987 H 0.21472 0.18057 0.43654
 H2988 H 0.19301 0.23017 0.42001
 H2989 H 0.20416 0.24039 0.43822
 H2990 H 0.22236 0.18933 0.45352
 H2991 H 0.23388 0.20101 0.47093
 H2992 H 0.21879 0.23933 0.45721
 C2993 C 0.29108 0.39954 0.68960
 C2994 C 0.29802 0.40933 0.69722
 C2995 C 0.31196 0.40722 0.69947
 C2996 C 0.31860 0.39593 0.69396
 C2997 C 0.31159 0.38660 0.68610
 C2998 C 0.29777 0.38847 0.68415
 C2999 C 0.31921 0.41641 0.70713
 C3000 C 0.31298 0.42767 0.71271
 C3001 C 0.29914 0.43029 0.71075
 C3002 C 0.29158 0.42105 0.70273
 C3003 C 0.27784 0.42385 0.70040
 C3004 C 0.27157 0.43501 0.70599
 C3005 C 0.27865 0.44388 0.71410
 C3006 C 0.29257 0.44180 0.71655
 C3007 C 0.29921 0.45127 0.72486
 C3008 C 0.29220 0.46203 0.73068
 C3009 C 0.27844 0.46371 0.72839
 C3010 C 0.27178 0.45477 0.71992
 H3011 H 0.28045 0.40002 0.68767
 H3012 H 0.32930 0.39459 0.69557
 H3013 H 0.29198 0.38126 0.67842
 H3014 H 0.32987 0.41488 0.70889
 H3015 H 0.31937 0.43418 0.71850
 H3016 H 0.27155 0.41765 0.69422
 H3017 H 0.26097 0.43665 0.70400
 H3018 H 0.30974 0.45058 0.72726
 H3019 H 0.29747 0.46893 0.73722
 H3020 H 0.26110 0.45617 0.71814
 C3021 C 0.31494 0.90163 0.20830
 C3022 C 0.30587 0.91101 0.20250
 C3023 C 0.30218 0.90889 0.18911
 C3024 C 0.30716 0.89768 0.18205
 C3025 C 0.31601 0.88845 0.18801
 C3026 C 0.31987 0.89060 0.20116
 C3027 C 0.29352 0.91795 0.18280
 C3028 C 0.28836 0.92911 0.18945
 C3029 C 0.29157 0.93164 0.20283
 C3030 C 0.30035 0.92235 0.20952
 C3031 C 0.30315 0.92459 0.22304
 C3032 C 0.29752 0.93539 0.22985
 C3033 C 0.28901 0.94454 0.22350
 C3034 C 0.28606 0.94299 0.20985
 C3035 C 0.27761 0.95286 0.20386
 C3036 C 0.27199 0.96338 0.21126
 C3037 C 0.27462 0.96445 0.22477
 C3038 C 0.28328 0.95516 0.23082
 H3039 H 0.31851 0.90250 0.21831
 H3040 H 0.30423 0.89626 0.17182
 H3041 H 0.32665 0.88363 0.20609
 H3042 H 0.29066 0.91638 0.17257
 H3043 H 0.28166 0.93546 0.18381
 H3044 H 0.30950 0.91800 0.22881
 H3045 H 0.29982 0.93656 0.24027
 H3046 H 0.27509 0.95276 0.19350
 H3047 H 0.26534 0.97060 0.20648
 H3048 H 0.28534 0.95611 0.24131
 C3049 C 0.79086 0.40108 0.19139
 C3050 C 0.79789 0.41059 0.19928
 C3051 C 0.81192 0.40858 0.20100
 C3052 C 0.81848 0.39748 0.19506
 C3053 C 0.81133 0.38829 0.18717
 C3054 C 0.79749 0.39020 0.18547
 C3055 C 0.81937 0.41770 0.20858
 C3056 C 0.81326 0.42884 0.21448
 C3057 C 0.79933 0.43133 0.21310
 C3058 C 0.79150 0.42198 0.20545
 C3059 C 0.77752 0.42429 0.20427
 C3060 C 0.77135 0.43523 0.21037
 C3061 C 0.77879 0.44441 0.21783
 C3062 C 0.79291 0.44275 0.21923
 C3063 C 0.79994 0.45261 0.22677
 C3064 C 0.79313 0.46331 0.23290
 C3065 C 0.77919 0.46455 0.23170
 C3066 C 0.77210 0.45520 0.22403
 H3067 H 0.78023 0.40170 0.18948
 H3068 H 0.82923 0.39617 0.19638
 H3069 H 0.79163 0.38319 0.17959
 H3070 H 0.83008 0.41623 0.20995
 H3071 H 0.81979 0.43529 0.22018
 H3072 H 0.77092 0.41775 0.19877
 H3073 H 0.76057 0.43649 0.20926
 H3074 H 0.81066 0.45235 0.22820
 H3075 H 0.79874 0.47055 0.23878
 H3076 H 0.76128 0.45627 0.22306
 C3077 C 0.79063 0.90191 0.68956
 C3078 C 0.79766 0.91128 0.69759
 C3079 C 0.81143 0.90861 0.70023
 C3080 C 0.81786 0.89723 0.69463
 C3081 C 0.81077 0.88830 0.68639
 C3082 C 0.79709 0.89072 0.68408
 C3083 C 0.81870 0.91730 0.70844
 C3084 C 0.81261 0.92855 0.71421
 C3085 C 0.79895 0.93170 0.71184
 C3086 C 0.79144 0.92307 0.70316
 C3087 C 0.77799 0.92657 0.70022
 C3088 C 0.77188 0.93777 0.70589
 C3089 C 0.77886 0.94599 0.71471
 C3090 C 0.79251 0.94320 0.71783
 C3091 C 0.79901 0.95197 0.72695
 C3092 C 0.79211 0.96280 0.73280
 C3093 C 0.77863 0.96524 0.72971
 C3094 C 0.77212 0.95693 0.72056
 H3095 H 0.78006 0.90276 0.68741
 H3096 H 0.82844 0.89546 0.69657
 H3097 H 0.79118 0.88384 0.67811
 H3098 H 0.82923 0.91534 0.71050
 H3099 H 0.81898 0.93467 0.72041
 H3100 H 0.77183 0.92093 0.69342
 H3101 H 0.76150 0.93998 0.70338
 H3102 H 0.80931 0.95063 0.72998
 H3103 H 0.79723 0.96917 0.73993
 H3104 H 0.76163 0.95887 0.71824
 C3105 C 0.68513 0.59856 0.70573
 C3106 C 0.69436 0.58966 0.69951
 C3107 C 0.69769 0.59233 0.68613
 C3108 C 0.69223 0.60362 0.67949
 C3109 C 0.68326 0.61241 0.68588
 C3110 C 0.67973 0.60969 0.69902
 C3111 C 0.70650 0.58377 0.67940
 C3112 C 0.71216 0.57257 0.68563
 C3113 C 0.70934 0.56951 0.69899
 C3114 C 0.70038 0.57828 0.70609
 C3115 C 0.69794 0.57551 0.71958
 C3116 C 0.70407 0.56468 0.72598
 C3117 C 0.71276 0.55605 0.71922
 C3118 C 0.71539 0.55815 0.70557
 C3119 C 0.72406 0.54879 0.69916
 C3120 C 0.73021 0.53825 0.70616
 C3121 C 0.72790 0.53663 0.71968
 C3122 C 0.71901 0.54540 0.72612
 H3123 H 0.68179 0.59725 0.71577
 H3124 H 0.69492 0.60546 0.66927
 H3125 H 0.67287 0.61628 0.70429
 H3126 H 0.70908 0.58575 0.66917
 H3127 H 0.71893 0.56663 0.67968
 H3128 H 0.69148 0.58168 0.72564
 H3129 H 0.70202 0.56310 0.73639
 H3130 H 0.72637 0.54932 0.68878
 H3131 H 0.73701 0.53144 0.70105
 H3132 H 0.71716 0.54403 0.73661
 C3133 C 0.70809 0.09954 0.18650
 C3134 C 0.70135 0.09084 0.19547
 C3135 C 0.68760 0.09356 0.19806
 C3136 C 0.68112 0.10476 0.19222
 C3137 C 0.68804 0.11341 0.18359
 C3138 C 0.70154 0.11058 0.18072
 C3139 C 0.68035 0.08514 0.20653
 C3140 C 0.68642 0.07405 0.21258
 C3141 C 0.70014 0.07099 0.21052
 C3142 C 0.70778 0.07962 0.20194
 C3143 C 0.72164 0.07691 0.20033
 C3144 C 0.72787 0.06624 0.20688
 C3145 C 0.72058 0.05770 0.21518
 C3146 C 0.70656 0.05975 0.21698
 C3147 C 0.69962 0.05046 0.22525
 C3148 C 0.70643 0.03998 0.23173
 C3149 C 0.72029 0.03840 0.23019
 C3150 C 0.72730 0.04716 0.22181
 H3151 H 0.71843 0.09812 0.18366
 H3152 H 0.67062 0.10666 0.19438
 H3153 H 0.70721 0.11703 0.17410
 H3154 H 0.66983 0.08715 0.20855
 H3155 H 0.68007 0.06822 0.21905
 H3156 H 0.72811 0.08302 0.19423
 H3157 H 0.73857 0.06469 0.20546
 H3158 H 0.68894 0.05095 0.22693
 H3159 H 0.70089 0.03317 0.23813
 H3160 H 0.73806 0.04581 0.22057
 C3161 C 0.18520 0.59903 0.20781
 C3162 C 0.19415 0.58975 0.20173
 C3163 C 0.19743 0.59200 0.18826
 C3164 C 0.19208 0.60317 0.18135
 C3165 C 0.18328 0.61226 0.18757
 C3166 C 0.17992 0.61004 0.20084
 C3167 C 0.20605 0.58310 0.18172
 C3168 C 0.21156 0.57198 0.18821
 C3169 C 0.20875 0.56931 0.20165
 C3170 C 0.19995 0.57840 0.20855
 C3171 C 0.19740 0.57595 0.22209
 C3172 C 0.20329 0.56513 0.22871
 C3173 C 0.21186 0.55621 0.22216
 C3174 C 0.21461 0.55800 0.20849
 C3175 C 0.22322 0.54842 0.20233
 C3176 C 0.22916 0.53792 0.20957
 C3177 C 0.22669 0.53657 0.22310
 C3178 C 0.21787 0.54559 0.22930
 H3179 H 0.18200 0.59814 0.21793
 H3180 H 0.19467 0.60468 0.17105
 H3181 H 0.17327 0.61692 0.20601
 H3182 H 0.20861 0.58476 0.17142
 H3183 H 0.21817 0.56574 0.18238
 H3184 H 0.19100 0.58232 0.22800
 H3185 H 0.20114 0.56378 0.23914
 H3186 H 0.22567 0.54874 0.19197
 H3187 H 0.23592 0.53093 0.20465
 H3188 H 0.21589 0.54443 0.23979
 C3189 C 0.20692 0.09748 0.68724
 C3190 C 0.20021 0.08861 0.69606
 C3191 C 0.18643 0.09120 0.69868
 C3192 C 0.17988 0.10243 0.69295
 C3193 C 0.18675 0.11114 0.68433
 C3194 C 0.20028 0.10850 0.68152
 C3195 C 0.17923 0.08258 0.70699
 C3196 C 0.18533 0.07135 0.71277
 C3197 C 0.19904 0.06835 0.71060
 C3198 C 0.20668 0.07728 0.70230
 C3199 C 0.22056 0.07471 0.70070
 C3200 C 0.22680 0.06385 0.70692
 C3201 C 0.21950 0.05496 0.71484
 C3202 C 0.20548 0.05690 0.71667
 C3203 C 0.19853 0.04726 0.72456
 C3204 C 0.20537 0.03658 0.73071
 C3205 C 0.21925 0.03512 0.72918
 C3206 C 0.22624 0.04420 0.72111
 H3207 H 0.21727 0.09618 0.68441
 H3208 H 0.16935 0.10424 0.69506
 H3209 H 0.20590 0.11506 0.67495
 H3210 H 0.16870 0.08452 0.70905
 H3211 H 0.17901 0.06534 0.71911
 H3212 H 0.22705 0.08110 0.69490
 H3213 H 0.23752 0.06241 0.70551
 H3214 H 0.18784 0.04766 0.72619
 H3215 H 0.19984 0.02953 0.73689
 H3216 H 0.23701 0.04296 0.71988
 C3217 C 0.31487 0.59662 0.29252
 C3218 C 0.30479 0.58839 0.29821
 C3219 C 0.29940 0.59246 0.31056
 C3220 C 0.30458 0.60389 0.31722
 C3221 C 0.31496 0.61163 0.31162
 C3222 C 0.31981 0.60796 0.29910
 C3223 C 0.28885 0.58510 0.31617
 C3224 C 0.28336 0.57396 0.30967
 C3225 C 0.28847 0.56946 0.29740
 C3226 C 0.29974 0.57647 0.29188
 C3227 C 0.30577 0.57121 0.28032
 C3228 C 0.30057 0.55994 0.27395
 C3229 C 0.28909 0.55352 0.27870
 C3230 C 0.28281 0.55813 0.29048
 C3231 C 0.27093 0.55138 0.29459
 C3232 C 0.26555 0.54068 0.28720
 C3233 C 0.27189 0.53632 0.27564
 C3234 C 0.28374 0.54260 0.27154
 H3235 H 0.31897 0.59481 0.28283
 H3236 H 0.30053 0.60668 0.32678
 H3237 H 0.32742 0.61390 0.29415
 H3238 H 0.28468 0.58810 0.32563
 H3239 H 0.27524 0.56889 0.31470
 H3240 H 0.31477 0.57541 0.27606
 H3241 H 0.30550 0.55632 0.26506
 H3242 H 0.26533 0.55436 0.30323
 H3243 H 0.25628 0.53593 0.29039
 H3244 H 0.28853 0.53923 0.26248
 C3245 C 0.31148 0.09706 0.79196
 C3246 C 0.30245 0.08800 0.79824
 C3247 C 0.29976 0.09014 0.81186
 C3248 C 0.30558 0.10113 0.81865
 C3249 C 0.31435 0.11006 0.81220
 C3250 C 0.31729 0.10784 0.79884
 C3251 C 0.29129 0.08130 0.81866
 C3252 C 0.28538 0.07033 0.81230
 C3253 C 0.28757 0.06781 0.79872
 C3254 C 0.29605 0.07694 0.79152
 C3255 C 0.29767 0.07486 0.77779
 C3256 C 0.29129 0.06427 0.77130
 C3257 C 0.28317 0.05517 0.77818
 C3258 C 0.28133 0.05663 0.79203
 C3259 C 0.27327 0.04681 0.79855
 C3260 C 0.26702 0.03637 0.79152
 C3261 C 0.26859 0.03534 0.77784
 C3262 C 0.27678 0.04466 0.77123
 H3263 H 0.31440 0.09608 0.78176
 H3264 H 0.30339 0.10260 0.82905
 H3265 H 0.32400 0.11456 0.79354
 H3266 H 0.28919 0.08287 0.82907
 H3267 H 0.27891 0.06413 0.81832
 H3268 H 0.30362 0.08143 0.77163
 H3269 H 0.29272 0.06319 0.76073
 H3270 H 0.27162 0.04684 0.80906
 H3271 H 0.26079 0.02913 0.79675
 H3272 H 0.27805 0.04375 0.76061
 C3273 C 0.81818 0.59568 0.79111
 C3274 C 0.80721 0.58797 0.79593
 C3275 C 0.80114 0.59228 0.80789
 C3276 C 0.80609 0.60364 0.81475
 C3277 C 0.81700 0.61114 0.80986
 C3278 C 0.82294 0.60700 0.79796
 C3279 C 0.79011 0.58528 0.81296
 C3280 C 0.78469 0.57426 0.80627
 C3281 C 0.79022 0.56964 0.79422
 C3282 C 0.80194 0.57633 0.78920
 C3283 C 0.80805 0.57110 0.77767
 C3284 C 0.80268 0.56007 0.77099
 C3285 C 0.79092 0.55387 0.77538
 C3286 C 0.78446 0.55853 0.78704
 C3287 C 0.77233 0.55202 0.79083
 C3288 C 0.76692 0.54147 0.78330
 C3289 C 0.77343 0.53700 0.77188
 C3290 C 0.78547 0.54311 0.76802
 H3291 H 0.82319 0.59343 0.78194
 H3292 H 0.80130 0.60664 0.82391
 H3293 H 0.83127 0.61255 0.79374
 H3294 H 0.78550 0.58843 0.82217
 H3295 H 0.77621 0.56946 0.81093
 H3296 H 0.81717 0.57522 0.77357
 H3297 H 0.80771 0.55646 0.76216
 H3298 H 0.76658 0.55503 0.79935
 H3299 H 0.75752 0.53687 0.78630
 H3300 H 0.79042 0.53966 0.75908
 C3301 C 0.81242 0.09959 0.29333
 C3302 C 0.80337 0.09061 0.29969
 C3303 C 0.80064 0.09292 0.31327
 C3304 C 0.80647 0.10395 0.31996
 C3305 C 0.81524 0.11283 0.31344
 C3306 C 0.81819 0.11047 0.30010
 C3307 C 0.79209 0.08423 0.32014
 C3308 C 0.78610 0.07326 0.31387
 C3309 C 0.78831 0.07057 0.30033
 C3310 C 0.79696 0.07950 0.29308
 C3311 C 0.79871 0.07718 0.27940
 C3312 C 0.79222 0.06660 0.27299
 C3313 C 0.78386 0.05777 0.27992
 C3314 C 0.78193 0.05943 0.29373
 C3315 C 0.77363 0.04986 0.30029
 C3316 C 0.76722 0.03948 0.29332
 C3317 C 0.76887 0.03828 0.27967
 C3318 C 0.77731 0.04732 0.27303
 H3319 H 0.81537 0.09849 0.28315
 H3320 H 0.80426 0.10549 0.33034
 H3321 H 0.82492 0.11710 0.29474
 H3322 H 0.78995 0.08595 0.33052
 H3323 H 0.77952 0.06721 0.31993
 H3324 H 0.80485 0.08354 0.27321
 H3325 H 0.79374 0.06535 0.26245
 H3326 H 0.77190 0.05002 0.31080
 H3327 H 0.76080 0.03243 0.29858
 H3328 H 0.77868 0.04624 0.26244
 C3329 C 0.68666 0.40267 0.29143
 C3330 C 0.69522 0.41195 0.29804
 C3331 C 0.69763 0.40973 0.31170
 C3332 C 0.69209 0.39844 0.31819
 C3333 C 0.68390 0.38921 0.31141
 C3334 C 0.68111 0.39153 0.29803
 C3335 C 0.70562 0.41872 0.31884
 C3336 C 0.71139 0.42992 0.31278
 C3337 C 0.70956 0.43252 0.29916
 C3338 C 0.70147 0.42329 0.29163
 C3339 C 0.70015 0.42555 0.27789
 C3340 C 0.70655 0.43633 0.27169
 C3341 C 0.71436 0.44544 0.27888
 C3342 C 0.71581 0.44387 0.29276
 C3343 C 0.72356 0.45371 0.29961
 C3344 C 0.72999 0.46422 0.29285
 C3345 C 0.72888 0.46532 0.27913
 C3346 C 0.72092 0.45604 0.27221
 H3347 H 0.68397 0.40370 0.28116
 H3348 H 0.69410 0.39693 0.32862
 H3349 H 0.67479 0.38460 0.29253
 H3350 H 0.70747 0.41708 0.32929
 H3351 H 0.71751 0.43621 0.31906
 H3352 H 0.69445 0.41896 0.27152
 H3353 H 0.70539 0.43750 0.26109
 H3354 H 0.72489 0.45362 0.31017
 H3355 H 0.73605 0.47142 0.29832
 H3356 H 0.72000 0.45701 0.26156
 C3357 C 0.68556 0.90319 0.79212
 C3358 C 0.69507 0.91201 0.79800
 C3359 C 0.69928 0.90904 0.81109
 C3360 C 0.69403 0.89775 0.81792
 C3361 C 0.68452 0.88922 0.81195
 C3362 C 0.68042 0.89207 0.79899
 C3363 C 0.70869 0.91733 0.81733
 C3364 C 0.71417 0.92848 0.81087
 C3365 C 0.71040 0.93188 0.79781
 C3366 C 0.70059 0.92358 0.79131
 C3367 C 0.69662 0.92710 0.77834
 C3368 C 0.70218 0.93813 0.77180
 C3369 C 0.71191 0.94614 0.77786
 C3370 C 0.71616 0.94326 0.79097
 C3371 C 0.72613 0.95182 0.79657
 C3372 C 0.73172 0.96251 0.78933
 C3373 C 0.72753 0.96506 0.77638
 C3374 C 0.71756 0.95696 0.77074
 H3375 H 0.68188 0.90446 0.78219
 H3376 H 0.69728 0.89574 0.82796
 H3377 H 0.67328 0.88560 0.79396
 H3378 H 0.71193 0.91514 0.82735
 H3379 H 0.72137 0.93427 0.81647
 H3380 H 0.68917 0.92155 0.77284
 H3381 H 0.69886 0.94034 0.76181
 H3382 H 0.72998 0.95046 0.80643
 H3383 H 0.73951 0.96870 0.79377
 H3384 H 0.71441 0.95896 0.76065
 C3385 C 0.20771 0.40445 0.81487
 C3386 C 0.20193 0.41218 0.80456
 C3387 C 0.18971 0.40747 0.79897
 C3388 C 0.18321 0.39592 0.80417
 C3389 C 0.18888 0.38869 0.81478
 C3390 C 0.20131 0.39299 0.81983
 C3391 C 0.18407 0.41430 0.78822
 C3392 C 0.19044 0.42554 0.78270
 C3393 C 0.20257 0.43067 0.78800
 C3394 C 0.20806 0.42421 0.79947
 C3395 C 0.21939 0.43010 0.80564
 C3396 C 0.22563 0.44145 0.80041
 C3397 C 0.22097 0.44733 0.78876
 C3398 C 0.20939 0.44208 0.78232
 C3399 C 0.20538 0.44830 0.77029
 C3400 C 0.21271 0.45907 0.76490
 C3401 C 0.22410 0.46405 0.77138
 C3402 C 0.22805 0.45832 0.78338
 H3403 H 0.21736 0.40676 0.81915
 H3404 H 0.17373 0.39263 0.79998
 H3405 H 0.20633 0.38746 0.82763
 H3406 H 0.17471 0.41082 0.78389
 H3407 H 0.18542 0.43019 0.77441
 H3408 H 0.22356 0.42634 0.81477
 H3409 H 0.23435 0.44556 0.80545
 H3410 H 0.19691 0.44482 0.76459
 H3411 H 0.20965 0.46339 0.75551
 H3412 H 0.23698 0.46216 0.78829
 C3413 C 0.18186 0.90489 0.29208
 C3414 C 0.19267 0.91258 0.29728
 C3415 C 0.19835 0.90820 0.30942
 C3416 C 0.19327 0.89677 0.31602
 C3417 C 0.18259 0.88925 0.31073
 C3418 C 0.17695 0.89347 0.29870
 C3419 C 0.20915 0.91520 0.31494
 C3420 C 0.21474 0.92629 0.30854
 C3421 C 0.20964 0.93097 0.29633
 C3422 C 0.19815 0.92429 0.29081
 C3423 C 0.19250 0.92956 0.27905
 C3424 C 0.19809 0.94069 0.27267
 C3425 C 0.20963 0.94692 0.27759
 C3426 C 0.21564 0.94215 0.28946
 C3427 C 0.22760 0.94862 0.29378
 C3428 C 0.23326 0.95926 0.28659
 C3429 C 0.22719 0.96388 0.27498
 C3430 C 0.21532 0.95780 0.27057
 H3431 H 0.17708 0.90725 0.28280
 H3432 H 0.19777 0.89377 0.32533
 H3433 H 0.16878 0.88787 0.29422
 H3434 H 0.21345 0.91198 0.32429
 H3435 H 0.22300 0.93109 0.31358
 H3436 H 0.18361 0.92539 0.27454
 H3437 H 0.19341 0.94434 0.26366
 H3438 H 0.23305 0.94552 0.30247
 H3439 H 0.24254 0.96384 0.29002
 H3440 H 0.21073 0.96135 0.26146
 C3441 C 0.40503 0.29074 0.68423
 C3442 C 0.41299 0.29705 0.69407
 C3443 C 0.40914 0.31024 0.69825
 C3444 C 0.39792 0.31677 0.69261
 C3445 C 0.39023 0.31039 0.68279
 C3446 C 0.39392 0.29730 0.67874
 C3447 C 0.41649 0.31685 0.70806
 C3448 C 0.42750 0.31065 0.71400
 C3449 C 0.43174 0.29750 0.71027
 C3450 C 0.42450 0.29069 0.69998
 C3451 C 0.42902 0.27775 0.69590
 C3452 C 0.43995 0.27149 0.70185
 C3453 C 0.44686 0.27779 0.71213
 C3454 C 0.44296 0.29091 0.71650
 C3455 C 0.45038 0.29674 0.72706
 C3456 C 0.46096 0.28970 0.73307
 C3457 C 0.46452 0.27673 0.72876
 C3458 C 0.45759 0.27090 0.71818
 H3459 H 0.40695 0.28065 0.68061
 H3460 H 0.39526 0.32690 0.69586
 H3461 H 0.38812 0.29193 0.67136
 H3462 H 0.41363 0.32695 0.71128
 H3463 H 0.43253 0.31652 0.72148
 H3464 H 0.42436 0.27211 0.68803
 H3465 H 0.44297 0.26152 0.69842
 H3466 H 0.44816 0.30660 0.73108
 H3467 H 0.46627 0.29431 0.74128
 H3468 H 0.46041 0.26082 0.71486
 C3469 C 0.40468 0.79015 0.18122
 C3470 C 0.41326 0.79691 0.19028
 C3471 C 0.40995 0.81046 0.19371
 C3472 C 0.39850 0.81678 0.18838
 C3473 C 0.39006 0.80989 0.17956
 C3474 C 0.39333 0.79656 0.17599
 C3475 C 0.41801 0.81767 0.20251
 C3476 C 0.42926 0.81172 0.20820
 C3477 C 0.43294 0.79819 0.20532
 C3478 C 0.42487 0.79069 0.19612
 C3479 C 0.42861 0.77719 0.19316
 C3480 C 0.43962 0.77110 0.19915
 C3481 C 0.44741 0.77816 0.20828
 C3482 C 0.44433 0.79185 0.21145
 C3483 C 0.45270 0.79850 0.22079
 C3484 C 0.46334 0.79169 0.22691
 C3485 C 0.46603 0.77814 0.22387
 C3486 C 0.45819 0.77147 0.21445
 H3487 H 0.40634 0.77988 0.17800
 H3488 H 0.39624 0.82717 0.19111
 H3489 H 0.38697 0.79091 0.16927
 H3490 H 0.41554 0.82806 0.20513
 H3491 H 0.43482 0.81806 0.21491
 H3492 H 0.42317 0.77093 0.18629
 H3493 H 0.44198 0.76066 0.19667
 H3494 H 0.45124 0.80889 0.22376
 H3495 H 0.46937 0.79693 0.23422
 H3496 H 0.46034 0.76093 0.21216
 C3497 C 0.90418 0.29209 0.18408
 C3498 C 0.91254 0.29844 0.19357
 C3499 C 0.90904 0.31176 0.19764
 C3500 C 0.89776 0.31839 0.19221
 C3501 C 0.88970 0.31198 0.18271
 C3502 C 0.89303 0.29876 0.17879
 C3503 C 0.91679 0.31842 0.20711
 C3504 C 0.92788 0.31214 0.21280
 C3505 C 0.93180 0.29886 0.20916
 C3506 C 0.92412 0.29198 0.19923
 C3507 C 0.92828 0.27889 0.19525
 C3508 C 0.93928 0.27254 0.20100
 C3509 C 0.94662 0.27891 0.21093
 C3510 C 0.94310 0.29220 0.21515
 C3511 C 0.95097 0.29811 0.22535
 C3512 C 0.96159 0.29100 0.23119
 C3513 C 0.96474 0.27786 0.22706
 C3514 C 0.95739 0.27193 0.21681
 H3515 H 0.90582 0.28191 0.18057
 H3516 H 0.89536 0.32862 0.19536
 H3517 H 0.88692 0.29336 0.17167
 H3518 H 0.91419 0.32862 0.21024
 H3519 H 0.93323 0.31805 0.22004
 H3520 H 0.92328 0.27318 0.18763
 H3521 H 0.94201 0.26244 0.19768
 H3522 H 0.94908 0.30811 0.22922
 H3523 H 0.96724 0.29567 0.23914
 H3524 H 0.95990 0.26172 0.21365
 C3525 C 0.90382 0.79223 0.68501
 C3526 C 0.91237 0.79913 0.69397
 C3527 C 0.90939 0.81292 0.69675
 C3528 C 0.89811 0.81928 0.69106
 C3529 C 0.88964 0.81220 0.68239
 C3530 C 0.89270 0.79867 0.67937
 C3531 C 0.91763 0.82032 0.70525
 C3532 C 0.92878 0.81437 0.71116
 C3533 C 0.93211 0.80061 0.70893
 C3534 C 0.92370 0.79283 0.70028
 C3535 C 0.92673 0.77894 0.69842
 C3536 C 0.93748 0.77281 0.70483
 C3537 C 0.94577 0.78023 0.71324
 C3538 C 0.94340 0.79429 0.71528
 C3539 C 0.95241 0.80136 0.72370
 C3540 C 0.96288 0.79460 0.73017
 C3541 C 0.96475 0.78067 0.72845
 C3542 C 0.95634 0.77357 0.71981
 H3543 H 0.90540 0.78185 0.68208
 H3544 H 0.89600 0.82982 0.69333
 H3545 H 0.88637 0.79287 0.67275
 H3546 H 0.91542 0.83087 0.70740
 H3547 H 0.93446 0.82083 0.71766
 H3548 H 0.92083 0.77236 0.69223
 H3549 H 0.93928 0.76208 0.70323
 H3550 H 0.95166 0.81209 0.72556
 H3551 H 0.96941 0.80023 0.73676
 H3552 H 0.95791 0.76276 0.71842
 C3553 C 0.59428 0.29056 0.31809
 C3554 C 0.58621 0.29664 0.30816
 C3555 C 0.59013 0.30963 0.30349
 C3556 C 0.60157 0.31614 0.30864
 C3557 C 0.60945 0.30995 0.31845
 C3558 C 0.60564 0.29711 0.32310
 C3559 C 0.58265 0.31608 0.29366
 C3560 C 0.57145 0.30987 0.28813
 C3561 C 0.56718 0.29687 0.29226
 C3562 C 0.57455 0.29024 0.30261
 C3563 C 0.57004 0.27742 0.30703
 C3564 C 0.55901 0.27110 0.30135
 C3565 C 0.55198 0.27721 0.29102
 C3566 C 0.55585 0.29023 0.28634
 C3567 C 0.54831 0.29589 0.27577
 C3568 C 0.53769 0.28877 0.26997
 C3569 C 0.53419 0.27586 0.27452
 C3570 C 0.54120 0.27022 0.28518
 H3571 H 0.59224 0.28068 0.32215
 H3572 H 0.60427 0.32610 0.30497
 H3573 H 0.61153 0.29193 0.33055
 H3574 H 0.58555 0.32604 0.29010
 H3575 H 0.56635 0.31561 0.28058
 H3576 H 0.57483 0.27191 0.31493
 H3577 H 0.55602 0.26120 0.30500
 H3578 H 0.55046 0.30568 0.27154
 H3579 H 0.53233 0.29323 0.26170
 H3580 H 0.53844 0.26019 0.28868
 C3581 C 0.59469 0.79114 0.81503
 C3582 C 0.58620 0.79763 0.80573
 C3583 C 0.58964 0.81100 0.80175
 C3584 C 0.60103 0.81751 0.80704
 C3585 C 0.60925 0.81093 0.81631
 C3586 C 0.60595 0.79769 0.82018
 C3587 C 0.58173 0.81782 0.79251
 C3588 C 0.57051 0.81167 0.78696
 C3589 C 0.56665 0.79836 0.79050
 C3590 C 0.57455 0.79127 0.80015
 C3591 C 0.57055 0.77805 0.80389
 C3592 C 0.55954 0.77177 0.79815
 C3593 C 0.55196 0.77837 0.78851
 C3594 C 0.55524 0.79182 0.78462
 C3595 C 0.54702 0.79804 0.77486
 C3596 C 0.53636 0.79102 0.76903
 C3597 C 0.53352 0.77768 0.77274
 C3598 C 0.54120 0.77145 0.78259
 H3599 H 0.59306 0.78095 0.81851
 H3600 H 0.60339 0.82776 0.80395
 H3601 H 0.61216 0.79218 0.82715
 H3602 H 0.58430 0.82805 0.78944
 H3603 H 0.56509 0.81770 0.77985
 H3604 H 0.57575 0.77216 0.81127
 H3605 H 0.55698 0.76155 0.80125
 H3606 H 0.54864 0.80822 0.77133
 H3607 H 0.53046 0.79591 0.76137
 H3608 H 0.53893 0.76107 0.78541
 C3609 C 0.09382 0.29327 0.81922
 C3610 C 0.08655 0.29860 0.80838
 C3611 C 0.09168 0.31042 0.80216
 C3612 C 0.10335 0.31681 0.80702
 C3613 C 0.11028 0.31150 0.81796
 C3614 C 0.10540 0.29960 0.82387
 C3615 C 0.08517 0.31577 0.79110
 C3616 C 0.07384 0.30950 0.78585
 C3617 C 0.06835 0.29768 0.79165
 C3618 C 0.07455 0.29244 0.80337
 C3619 C 0.06848 0.28127 0.80980
 C3620 C 0.05716 0.27501 0.80465
 C3621 C 0.05145 0.27949 0.79286
 C3622 C 0.05688 0.29090 0.78615
 C3623 C 0.05077 0.29479 0.77404
 C3624 C 0.03996 0.28747 0.76882
 C3625 C 0.03483 0.27622 0.77554
 C3626 C 0.04044 0.27239 0.78763
 H3627 H 0.09104 0.28403 0.82421
 H3628 H 0.10700 0.32593 0.80223
 H3629 H 0.11057 0.29494 0.83211
 H3630 H 0.08898 0.32484 0.78632
 H3631 H 0.06948 0.31431 0.77730
 H3632 H 0.07213 0.27717 0.81899
 H3633 H 0.05295 0.26639 0.80989
 H3634 H 0.05432 0.30316 0.76815
 H3635 H 0.03574 0.29042 0.75937
 H3636 H 0.03649 0.26356 0.79272
 C3637 C 0.09453 0.78929 0.31895
 C3638 C 0.08632 0.79523 0.30905
 C3639 C 0.09005 0.80823 0.30428
 C3640 C 0.10149 0.81487 0.30925
 C3641 C 0.10953 0.80881 0.31901
 C3642 C 0.10588 0.79598 0.32379
 C3643 C 0.08242 0.81457 0.29451
 C3644 C 0.07118 0.80827 0.28918
 C3645 C 0.06706 0.79527 0.29344
 C3646 C 0.07466 0.78869 0.30365
 C3647 C 0.07041 0.77578 0.30807
 C3648 C 0.05936 0.76934 0.30253
 C3649 C 0.05205 0.77544 0.29239
 C3650 C 0.05566 0.78855 0.28774
 C3651 C 0.04779 0.79425 0.27743
 C3652 C 0.03713 0.78706 0.27180
 C3653 C 0.03393 0.77407 0.27628
 C3654 C 0.04124 0.76837 0.28670
 H3655 H 0.09259 0.77944 0.32313
 H3656 H 0.10405 0.82483 0.30549
 H3657 H 0.11189 0.79092 0.33124
 H3658 H 0.08521 0.82453 0.29085
 H3659 H 0.06598 0.81393 0.28164
 H3660 H 0.07543 0.77027 0.31582
 H3661 H 0.05658 0.75937 0.30616
 H3662 H 0.04966 0.80415 0.27330
 H3663 H 0.03150 0.79156 0.26373
 H3664 H 0.03869 0.75826 0.29013
 C3665 C 0.59289 0.71046 0.68200
 C3666 C 0.58540 0.70445 0.69236
 C3667 C 0.59005 0.69188 0.69746
 C3668 C 0.60152 0.68557 0.69213
 C3669 C 0.60876 0.69163 0.68179
 C3670 C 0.60431 0.70415 0.67686
 C3671 C 0.58328 0.68567 0.70790
 C3672 C 0.57215 0.69178 0.71366
 C3673 C 0.56717 0.70437 0.70906
 C3674 C 0.57363 0.71057 0.69794
 C3675 C 0.56807 0.72264 0.69272
 C3676 C 0.55692 0.72874 0.69842
 C3677 C 0.55093 0.72321 0.70963
 C3678 C 0.55593 0.71095 0.71518
 C3679 C 0.54962 0.70602 0.72680
 C3680 C 0.53897 0.71306 0.73264
 C3681 C 0.53418 0.72509 0.72704
 C3682 C 0.54006 0.73004 0.71546
 H3683 H 0.59039 0.72018 0.67777
 H3684 H 0.60476 0.67590 0.69612
 H3685 H 0.60970 0.70929 0.66905
 H3686 H 0.58672 0.67600 0.71177
 H3687 H 0.56756 0.68624 0.72164
 H3688 H 0.57200 0.72762 0.68408
 H3689 H 0.55306 0.73804 0.69409
 H3690 H 0.55287 0.69697 0.73186
 H3691 H 0.53455 0.70922 0.74169
 H3692 H 0.53637 0.73946 0.71124
 C3693 C 0.59397 0.20867 0.18692
 C3694 C 0.58616 0.20201 0.19665
 C3695 C 0.59033 0.18887 0.20069
 C3696 C 0.60169 0.18267 0.19496
 C3697 C 0.60914 0.18937 0.18516
 C3698 C 0.60518 0.20244 0.18131
 C3699 C 0.58317 0.18197 0.21045
 C3700 C 0.57201 0.18785 0.21643
 C3701 C 0.56744 0.20092 0.21280
 C3702 C 0.57449 0.20801 0.20256
 C3703 C 0.56962 0.22083 0.19851
 C3704 C 0.55855 0.22676 0.20450
 C3705 C 0.55185 0.22023 0.21476
 C3706 C 0.55608 0.20719 0.21907
 C3707 C 0.54884 0.20112 0.22962
 C3708 C 0.53814 0.20789 0.23570
 C3709 C 0.53429 0.22082 0.23145
 C3710 C 0.54102 0.22685 0.22087
 H3711 H 0.59186 0.21879 0.18347
 H3712 H 0.60463 0.17256 0.19806
 H3713 H 0.61084 0.20807 0.17402
 H3714 H 0.58626 0.17191 0.21357
 H3715 H 0.56713 0.18178 0.22387
 H3716 H 0.57408 0.22663 0.19064
 H3717 H 0.55528 0.23668 0.20110
 H3718 H 0.55130 0.19128 0.23359
 H3719 H 0.53298 0.20314 0.24393
 H3720 H 0.53799 0.23690 0.21762
 C3721 C 0.09357 0.71021 0.18463
 C3722 C 0.08533 0.70356 0.19404
 C3723 C 0.08884 0.69009 0.19762
 C3724 C 0.10011 0.68370 0.19201
 C3725 C 0.10818 0.69048 0.18277
 C3726 C 0.10474 0.70376 0.17914
 C3727 C 0.08112 0.68302 0.20682
 C3728 C 0.07006 0.68905 0.21276
 C3729 C 0.06621 0.70250 0.20973
 C3730 C 0.07388 0.70984 0.20010
 C3731 C 0.06991 0.72322 0.19692
 C3732 C 0.05906 0.72938 0.20311
 C3733 C 0.05169 0.72251 0.21270
 C3734 C 0.05502 0.70893 0.21611
 C3735 C 0.04708 0.70246 0.22591
 C3736 C 0.03661 0.70934 0.23222
 C3737 C 0.03369 0.72278 0.22895
 C3738 C 0.04108 0.72927 0.21906
 H3739 H 0.09178 0.72044 0.18133
 H3740 H 0.10253 0.67338 0.19484
 H3741 H 0.11080 0.70937 0.17213
 H3742 H 0.08371 0.67269 0.20954
 H3743 H 0.06476 0.68282 0.21977
 H3744 H 0.07500 0.72934 0.18968
 H3745 H 0.05649 0.73972 0.20042
 H3746 H 0.04875 0.69217 0.22911
 H3747 H 0.03090 0.70422 0.23985
 H3748 H 0.03872 0.73971 0.21655
 C3749 C 0.09699 0.20988 0.69025
 C3750 C 0.08798 0.20292 0.69869
 C3751 C 0.09051 0.18896 0.70115
 C3752 C 0.10159 0.18239 0.69531
 C3753 C 0.11028 0.18946 0.68686
 C3754 C 0.10787 0.20325 0.68447
 C3755 C 0.08194 0.18161 0.70936
 C3756 C 0.07088 0.18774 0.71526
 C3757 C 0.06790 0.20161 0.71318
 C3758 C 0.07662 0.20934 0.70477
 C3759 C 0.07371 0.22323 0.70275
 C3760 C 0.06285 0.22945 0.70882
 C3761 C 0.05435 0.22214 0.71710
 C3762 C 0.05659 0.20808 0.71934
 C3763 C 0.04744 0.20119 0.72775
 C3764 C 0.03686 0.20809 0.73389
 C3765 C 0.03504 0.22199 0.73183
 C3766 C 0.04366 0.22892 0.72328
 H3767 H 0.09599 0.22047 0.68783
 H3768 H 0.10330 0.17169 0.69719
 H3769 H 0.11450 0.20907 0.67816
 H3770 H 0.08381 0.17094 0.71128
 H3771 H 0.06489 0.18128 0.72148
 H3772 H 0.07970 0.22973 0.69657
 H3773 H 0.06113 0.24017 0.70705
 H3774 H 0.04819 0.19051 0.72990
 H3775 H 0.03019 0.20261 0.74046
 H3776 H 0.04215 0.23970 0.72166
 C3777 C 0.40494 0.68790 0.29072
 C3778 C 0.41383 0.69735 0.29658
 C3779 C 0.41091 0.70179 0.30960
 C3780 C 0.39978 0.69653 0.31653
 C3781 C 0.39129 0.68692 0.31064
 C3782 C 0.39394 0.68282 0.29764
 C3783 C 0.41909 0.71144 0.31566
 C3784 C 0.43002 0.71700 0.30903
 C3785 C 0.43338 0.71292 0.29605
 C3786 C 0.42536 0.70266 0.28987
 C3787 C 0.42919 0.69793 0.27724
 C3788 C 0.44014 0.70335 0.27062
 C3789 C 0.44770 0.71374 0.27623
 C3790 C 0.44451 0.71871 0.28903
 C3791 C 0.45250 0.72945 0.29410
 C3792 C 0.46301 0.73499 0.28669
 C3793 C 0.46596 0.72996 0.27412
 C3794 C 0.45838 0.71929 0.26898
 H3795 H 0.40601 0.68434 0.28072
 H3796 H 0.39784 0.69988 0.32655
 H3797 H 0.38741 0.67575 0.29259
 H3798 H 0.41696 0.71485 0.32563
 H3799 H 0.43577 0.72438 0.31447
 H3800 H 0.42404 0.68986 0.27218
 H3801 H 0.44263 0.69943 0.26091
 H3802 H 0.45073 0.73402 0.30361
 H3803 H 0.46877 0.74337 0.29070
 H3804 H 0.46065 0.71552 0.25915
 C3805 C 0.40516 0.20739 0.81470
 C3806 C 0.41346 0.20089 0.80527
 C3807 C 0.40975 0.18767 0.80111
 C3808 C 0.39837 0.18122 0.80648
 C3809 C 0.39037 0.18777 0.81594
 C3810 C 0.39388 0.20093 0.81990
 C3811 C 0.41736 0.18094 0.79158
 C3812 C 0.42847 0.18711 0.78585
 C3813 C 0.43257 0.20030 0.78955
 C3814 C 0.42515 0.20715 0.79970
 C3815 C 0.42970 0.21999 0.80398
 C3816 C 0.44073 0.22622 0.79824
 C3817 C 0.44767 0.21999 0.78796
 C3818 C 0.44380 0.20691 0.78346
 C3819 C 0.45121 0.20118 0.77285
 C3820 C 0.46175 0.20828 0.76690
 C3821 C 0.46527 0.22121 0.77135
 C3822 C 0.45838 0.22693 0.78200
 H3823 H 0.40690 0.21757 0.81815
 H3824 H 0.39583 0.17105 0.80328
 H3825 H 0.38782 0.20644 0.82696
 H3826 H 0.41463 0.17080 0.78841
 H3827 H 0.43373 0.18116 0.77857
 H3828 H 0.42502 0.22555 0.81190
 H3829 H 0.44376 0.23614 0.80179
 H3830 H 0.44895 0.19139 0.76869
 H3831 H 0.46703 0.20379 0.75862
 H3832 H 0.46117 0.23699 0.78539
 C3833 C 0.90624 0.70998 0.81971
 C3834 C 0.91341 0.70512 0.80859
 C3835 C 0.90862 0.69312 0.80245
 C3836 C 0.89727 0.68631 0.80741
 C3837 C 0.89030 0.69128 0.81846
 C3838 C 0.89494 0.70318 0.82450
 C3839 C 0.91514 0.68797 0.79133
 C3840 C 0.92619 0.69458 0.78595
 C3841 C 0.93130 0.70664 0.79158
 C3842 C 0.92500 0.71182 0.80328
 C3843 C 0.93053 0.72349 0.80930
 C3844 C 0.94153 0.73013 0.80392
 C3845 C 0.94746 0.72554 0.79229
 C3846 C 0.94250 0.71373 0.78591
 C3847 C 0.94883 0.70970 0.77396
 C3848 C 0.95944 0.71719 0.76863
 C3849 C 0.96415 0.72880 0.77503
 C3850 C 0.95826 0.73287 0.78690
 H3851 H 0.90892 0.71914 0.82487
 H3852 H 0.89389 0.67713 0.80257
 H3853 H 0.88981 0.70745 0.83295
 H3854 H 0.91159 0.67875 0.78663
 H3855 H 0.93057 0.68986 0.77738
 H3856 H 0.92664 0.72777 0.81831
 H3857 H 0.94535 0.73910 0.80888
 H3858 H 0.94568 0.70100 0.76833
 H3859 H 0.96390 0.71402 0.75935
 H3860 H 0.96190 0.74197 0.79176
 C3861 C 0.90546 0.21085 0.31651
 C3862 C 0.91377 0.20437 0.30706
 C3863 C 0.91022 0.19103 0.30314
 C3864 C 0.89885 0.18458 0.30852
 C3865 C 0.89067 0.19121 0.31778
 C3866 C 0.89418 0.20438 0.32172
 C3867 C 0.91794 0.18418 0.29378
 C3868 C 0.92899 0.19035 0.28795
 C3869 C 0.93285 0.20371 0.29131
 C3870 C 0.92530 0.21072 0.30125
 C3871 C 0.92949 0.22386 0.30501
 C3872 C 0.94035 0.23016 0.29900
 C3873 C 0.94749 0.22369 0.28899
 C3874 C 0.94396 0.21034 0.28500
 C3875 C 0.95159 0.20434 0.27469
 C3876 C 0.96200 0.21143 0.26852
 C3877 C 0.96517 0.22463 0.27243
 C3878 C 0.95806 0.23064 0.28278
 H3879 H 0.90724 0.22101 0.32000
 H3880 H 0.89638 0.17440 0.30532
 H3881 H 0.88817 0.20988 0.32884
 H3882 H 0.91533 0.17394 0.29081
 H3883 H 0.93431 0.18430 0.28080
 H3884 H 0.92459 0.22966 0.31263
 H3885 H 0.94310 0.24030 0.30215
 H3886 H 0.94966 0.19430 0.27096
 H3887 H 0.96748 0.20668 0.26050
 H3888 H 0.96060 0.24090 0.28578
 C3889 C 0.29139 0.30915 0.59569
 C3890 C 0.29830 0.30084 0.58650
 C3891 C 0.31223 0.29861 0.58865
 C3892 C 0.31876 0.30427 0.59968
 C3893 C 0.31171 0.31238 0.60869
 C3894 C 0.29800 0.31478 0.60653
 C3895 C 0.31960 0.29074 0.57979
 C3896 C 0.31350 0.28497 0.56880
 C3897 C 0.29963 0.28673 0.56625
 C3898 C 0.29187 0.29469 0.57533
 C3899 C 0.27792 0.29608 0.57304
 C3900 C 0.27171 0.28988 0.56237
 C3901 C 0.27910 0.28215 0.55344
 C3902 C 0.29319 0.28059 0.55507
 C3903 C 0.30019 0.27284 0.54545
 C3904 C 0.29335 0.26658 0.53503
 C3905 C 0.27942 0.26787 0.53385
 C3906 C 0.27237 0.27581 0.54293
 H3907 H 0.28088 0.31160 0.59482
 H3908 H 0.32942 0.30248 0.60113
 H3909 H 0.29222 0.32092 0.61334
 H3910 H 0.33025 0.28900 0.58137
 H3911 H 0.31996 0.27898 0.56258
 H3912 H 0.27136 0.30173 0.57946
 H3913 H 0.26094 0.29111 0.56114
 H3914 H 0.31091 0.27136 0.54566
 H3915 H 0.29892 0.26051 0.52798
 H3916 H 0.26155 0.27685 0.54190
 C3917 C 0.28925 0.81302 0.09444
 C3918 C 0.29597 0.80423 0.08552
 C3919 C 0.30978 0.80156 0.08789
 C3920 C 0.31633 0.80712 0.09893
 C3921 C 0.30944 0.81555 0.10780
 C3922 C 0.29590 0.81855 0.10534
 C3923 C 0.31703 0.79330 0.07928
 C3924 C 0.31091 0.78753 0.06831
 C3925 C 0.29714 0.78965 0.06556
 C3926 C 0.28949 0.79799 0.07441
 C3927 C 0.27559 0.79960 0.07200
 C3928 C 0.26932 0.79327 0.06141
 C3929 C 0.27663 0.78524 0.05265
 C3930 C 0.29069 0.78347 0.05441
 C3931 C 0.29764 0.77551 0.04492
 C3932 C 0.29081 0.76924 0.03452
 C3933 C 0.27691 0.77072 0.03320
 C3934 C 0.26988 0.77883 0.04218
 H3935 H 0.27887 0.81590 0.09329
 H3936 H 0.32688 0.80493 0.10054
 H3937 H 0.29030 0.82504 0.11199
 H3938 H 0.32759 0.79124 0.08104
 H3939 H 0.31726 0.78118 0.06232
 H3940 H 0.26911 0.80550 0.07830
 H3941 H 0.25858 0.79466 0.06009
 H3942 H 0.30835 0.77390 0.04521
 H3943 H 0.29635 0.76304 0.02755
 H3944 H 0.25909 0.78001 0.04105
 C3945 C 0.79170 0.31196 0.09499
 C3946 C 0.79870 0.30335 0.08613
 C3947 C 0.81252 0.30090 0.08868
 C3948 C 0.81885 0.30662 0.09978
 C3949 C 0.81170 0.31499 0.10850
 C3950 C 0.79811 0.31763 0.10593
 C3951 C 0.81998 0.29272 0.08017
 C3952 C 0.81408 0.28684 0.06913
 C3953 C 0.80032 0.28881 0.06619
 C3954 C 0.79247 0.29711 0.07490
 C3955 C 0.77862 0.29873 0.07221
 C3956 C 0.77260 0.29245 0.06148
 C3957 C 0.78008 0.28440 0.05290
 C3958 C 0.79408 0.28256 0.05496
 C3959 C 0.80117 0.27444 0.04570
 C3960 C 0.79450 0.26812 0.03521
 C3961 C 0.78065 0.26973 0.03359
 C3962 C 0.77352 0.27802 0.04233
 H3963 H 0.78127 0.31459 0.09380
 H3964 H 0.82942 0.30464 0.10153
 H3965 H 0.79227 0.32399 0.11250
 H3966 H 0.83055 0.29082 0.08206
 H3967 H 0.82060 0.28062 0.06319
 H3968 H 0.77200 0.30465 0.07833
 H3969 H 0.76189 0.29388 0.05992
 H3970 H 0.81185 0.27269 0.04627
 H3971 H 0.80013 0.26177 0.02845
 H3972 H 0.76277 0.27929 0.04096
 C3973 C 0.79105 0.81152 0.59475
 C3974 C 0.79830 0.80338 0.58567
 C3975 C 0.81218 0.80122 0.58822
 C3976 C 0.81829 0.80668 0.59957
 C3977 C 0.81087 0.81448 0.60856
 C3978 C 0.79725 0.81693 0.60595
 C3979 C 0.81990 0.79357 0.57948
 C3980 C 0.81419 0.78785 0.56827
 C3981 C 0.80037 0.78944 0.56537
 C3982 C 0.79227 0.79727 0.57426
 C3983 C 0.77837 0.79849 0.57161
 C3984 C 0.77251 0.79215 0.56081
 C3985 C 0.78022 0.78446 0.55210
 C3986 C 0.79431 0.78319 0.55405
 C3987 C 0.80167 0.77554 0.54462
 C3988 C 0.79518 0.76899 0.53417
 C3989 C 0.78125 0.76989 0.53273
 C3990 C 0.77384 0.77783 0.54155
 H3991 H 0.78057 0.81396 0.59355
 H3992 H 0.82890 0.80488 0.60134
 H3993 H 0.79121 0.82289 0.61269
 H3994 H 0.83051 0.79191 0.58135
 H3995 H 0.82090 0.78199 0.56219
 H3996 H 0.77159 0.80409 0.57784
 H3997 H 0.76176 0.79320 0.55932
 H3998 H 0.81242 0.77431 0.54503
 H3999 H 0.80102 0.76293 0.52731
 H4000 H 0.76302 0.77858 0.54032
 C4001 C 0.31413 0.70933 0.40263
 C4002 C 0.30514 0.70255 0.41123
 C4003 C 0.30221 0.68874 0.40848
 C4004 C 0.30781 0.68226 0.39738
 C4005 C 0.31659 0.68921 0.38891
 C4006 C 0.31972 0.70276 0.39172
 C4007 C 0.29371 0.68145 0.41683
 C4008 C 0.28804 0.68749 0.42791
 C4009 C 0.29048 0.70125 0.43103
 C4010 C 0.29900 0.70896 0.42243
 C4011 C 0.30093 0.72288 0.42517
 C4012 C 0.29481 0.72909 0.43589
 C4013 C 0.28665 0.72171 0.44446
 C4014 C 0.28449 0.70764 0.44233
 C4015 C 0.27634 0.70062 0.45161
 C4016 C 0.27033 0.70744 0.46219
 C4017 C 0.27224 0.72137 0.46388
 C4018 C 0.28052 0.72843 0.45510
 H4019 H 0.31720 0.71971 0.40405
 H4020 H 0.30544 0.67171 0.39544
 H4021 H 0.32642 0.70847 0.38539
 H4022 H 0.29142 0.67090 0.41478
 H4023 H 0.28156 0.68110 0.43372
 H4024 H 0.30694 0.72944 0.41905
 H4025 H 0.29648 0.73984 0.43748
 H4026 H 0.27441 0.68989 0.45101
 H4027 H 0.26399 0.70185 0.46899
 H4028 H 0.28203 0.73924 0.45650
 C4029 C 0.31030 0.20768 0.90276
 C4030 C 0.30203 0.20076 0.91192
 C4031 C 0.29870 0.18705 0.90912
 C4032 C 0.30397 0.18052 0.89786
 C4033 C 0.31256 0.18745 0.88920
 C4034 C 0.31545 0.20112 0.89169
 C4035 C 0.29020 0.17992 0.91759
 C4036 C 0.28480 0.18608 0.92875
 C4037 C 0.28786 0.19967 0.93205
 C4038 C 0.29688 0.20702 0.92365
 C4039 C 0.30062 0.22032 0.92733
 C4040 C 0.29539 0.22646 0.93852
 C4041 C 0.28620 0.21968 0.94650
 C4042 C 0.28227 0.20618 0.94347
 C4043 C 0.27270 0.19992 0.95190
 C4044 C 0.26720 0.20689 0.96265
 C4045 C 0.27114 0.22020 0.96540
 C4046 C 0.28073 0.22649 0.95742
 H4047 H 0.31289 0.21824 0.90372
 H4048 H 0.30156 0.16996 0.89601
 H4049 H 0.32168 0.20692 0.88499
 H4050 H 0.28762 0.16944 0.91553
 H4051 H 0.27835 0.17980 0.93472
 H4052 H 0.30774 0.22631 0.92185
 H4053 H 0.29851 0.23673 0.94088
 H4054 H 0.26899 0.18979 0.95031
 H4055 H 0.25964 0.20200 0.96871
 H4056 H 0.28363 0.23688 0.95954
 C4057 C 0.79071 0.68483 0.90464
 C4058 C 0.79718 0.69404 0.91332
 C4059 C 0.81066 0.69765 0.91040
 C4060 C 0.81718 0.69235 0.89921
 C4061 C 0.81055 0.68338 0.89065
 C4062 C 0.79730 0.67963 0.89356
 C4063 C 0.81759 0.70659 0.91860
 C4064 C 0.81145 0.71223 0.92962
 C4065 C 0.79799 0.70917 0.93292
 C4066 C 0.79075 0.69986 0.92468
 C4067 C 0.77730 0.69677 0.92800
 C4068 C 0.77102 0.70272 0.93878
 C4069 C 0.77784 0.71195 0.94677
 C4070 C 0.79146 0.71525 0.94409
 C4071 C 0.79788 0.72465 0.95265
 C4072 C 0.79091 0.73071 0.96310
 C4073 C 0.77743 0.72757 0.96539
 C4074 C 0.77099 0.71806 0.95734
 H4075 H 0.78052 0.68144 0.90604
 H4076 H 0.82749 0.69522 0.89725
 H4077 H 0.79185 0.67279 0.88713
 H4078 H 0.82792 0.70934 0.91644
 H4079 H 0.81758 0.71907 0.93531
 H4080 H 0.77121 0.68983 0.92238
 H4081 H 0.76064 0.70013 0.94083
 H4082 H 0.80820 0.72770 0.95151
 H4083 H 0.79600 0.73806 0.96929
 H4084 H 0.76051 0.71566 0.95918
 C4085 C 0.80789 0.21043 0.40240
 C4086 C 0.80072 0.20289 0.41199
 C4087 C 0.79902 0.18879 0.40970
 C4088 C 0.80454 0.18260 0.39839
 C4089 C 0.81176 0.19024 0.38908
 C4090 C 0.81325 0.20421 0.39121
 C4091 C 0.79181 0.18091 0.41869
 C4092 C 0.78608 0.18670 0.42988
 C4093 C 0.78745 0.20069 0.43265
 C4094 C 0.79507 0.20888 0.42364
 C4095 C 0.79680 0.22278 0.42658
 C4096 C 0.79097 0.22863 0.43763
 C4097 C 0.78321 0.22093 0.44626
 C4098 C 0.78139 0.20682 0.44405
 C4099 C 0.77341 0.19955 0.45329
 C4100 C 0.76733 0.20613 0.46398
 C4101 C 0.76902 0.22008 0.46582
 C4102 C 0.77711 0.22738 0.45706
 H4103 H 0.80948 0.22121 0.40310
 H4104 H 0.80327 0.17179 0.39694
 H4105 H 0.81854 0.21053 0.38419
 H4106 H 0.79047 0.17013 0.41700
 H4107 H 0.78061 0.17986 0.43619
 H4108 H 0.80266 0.22955 0.42054
 H4109 H 0.79248 0.23938 0.43938
 H4110 H 0.77149 0.18883 0.45247
 H4111 H 0.76106 0.20038 0.47071
 H4112 H 0.77841 0.23820 0.45856
 C4113 C 0.71006 0.31372 0.40401
 C4114 C 0.70342 0.30519 0.41321
 C4115 C 0.68959 0.30249 0.41103
 C4116 C 0.68293 0.30778 0.39989
 C4117 C 0.68972 0.31601 0.39079
 C4118 C 0.70330 0.31901 0.39304
 C4119 C 0.68243 0.29449 0.41994
 C4120 C 0.68866 0.28903 0.43103
 C4121 C 0.70245 0.29121 0.43360
 C4122 C 0.71001 0.29926 0.42444
 C4123 C 0.72395 0.30088 0.42666
 C4124 C 0.73033 0.29479 0.43733
 C4125 C 0.72311 0.28702 0.44638
 C4126 C 0.70902 0.28531 0.44485
 C4127 C 0.70216 0.27766 0.45463
 C4128 C 0.70912 0.27153 0.46505
 C4129 C 0.72305 0.27284 0.46609
 C4130 C 0.72999 0.28075 0.45688
 H4131 H 0.72045 0.31661 0.40498
 H4132 H 0.67236 0.30557 0.39841
 H4133 H 0.70885 0.32533 0.38620
 H4134 H 0.67185 0.29239 0.41833
 H4135 H 0.68236 0.28287 0.43726
 H4136 H 0.73036 0.30658 0.42013
 H4137 H 0.74109 0.29615 0.43849
 H4138 H 0.69143 0.27618 0.45456
 H4139 H 0.70364 0.26549 0.47220
 H4140 H 0.74081 0.28180 0.45780
 C4141 C 0.68903 0.79134 0.90305
 C4142 C 0.69741 0.79812 0.91221
 C4143 C 0.70112 0.81171 0.90931
 C4144 C 0.69598 0.81833 0.89801
 C4145 C 0.68721 0.81158 0.88938
 C4146 C 0.68404 0.79797 0.89193
 C4147 C 0.70988 0.81861 0.91772
 C4148 C 0.71519 0.81230 0.92889
 C4149 C 0.71170 0.79883 0.93227
 C4150 C 0.70234 0.79179 0.92399
 C4151 C 0.69803 0.77871 0.92786
 C4152 C 0.70313 0.77244 0.93906
 C4153 C 0.71275 0.77884 0.94685
 C4154 C 0.71720 0.79214 0.94367
 C4155 C 0.72719 0.79800 0.95191
 C4156 C 0.73260 0.79081 0.96260
 C4157 C 0.72816 0.77769 0.96547
 C4158 C 0.71812 0.77183 0.95771
 H4159 H 0.68626 0.78082 0.90403
 H4160 H 0.69865 0.82882 0.89609
 H4161 H 0.67771 0.79226 0.88524
 H4162 H 0.71276 0.82900 0.91560
 H4163 H 0.72186 0.81838 0.93481
 H4164 H 0.69051 0.77306 0.92255
 H4165 H 0.69957 0.76235 0.94156
 H4166 H 0.73131 0.80795 0.95017
 H4167 H 0.74050 0.79538 0.96848
 H4168 H 0.71483 0.76158 0.95992
 C4169 C 0.20822 0.31213 0.90585
 C4170 C 0.20147 0.30318 0.91456
 C4171 C 0.18788 0.29996 0.91166
 C4172 C 0.18144 0.30558 0.90054
 C4173 C 0.18830 0.31446 0.89208
 C4174 C 0.20173 0.31764 0.89488
 C4175 C 0.18076 0.29114 0.91984
 C4176 C 0.18683 0.28524 0.93079
 C4177 C 0.20037 0.28797 0.93408
 C4178 C 0.20776 0.29723 0.92592
 C4179 C 0.22121 0.30020 0.92935
 C4180 C 0.22738 0.29412 0.94012
 C4181 C 0.22046 0.28486 0.94795
 C4182 C 0.20682 0.28168 0.94518
 C4183 C 0.20034 0.27216 0.95358
 C4184 C 0.20726 0.26591 0.96397
 C4185 C 0.22074 0.26898 0.96634
 C4186 C 0.22724 0.27859 0.95847
 H4187 H 0.21856 0.31506 0.90710
 H4188 H 0.17103 0.30308 0.89856
 H4189 H 0.20740 0.32429 0.88845
 H4190 H 0.17035 0.28869 0.91770
 H4191 H 0.18056 0.27854 0.93649
 H4192 H 0.22737 0.30721 0.92390
 H4193 H 0.23777 0.29664 0.94227
 H4194 H 0.19002 0.26914 0.95231
 H4195 H 0.20214 0.25847 0.97004
 H4196 H 0.23772 0.28092 0.96039
 C4197 C 0.21102 0.81396 0.40325
 C4198 C 0.20450 0.80538 0.41249
 C4199 C 0.19069 0.80254 0.41036
 C4200 C 0.18394 0.80775 0.39924
 C4201 C 0.19063 0.81600 0.39009
 C4202 C 0.20418 0.81914 0.39228
 C4203 C 0.18364 0.79446 0.41928
 C4204 C 0.18996 0.78902 0.43031
 C4205 C 0.20375 0.79132 0.43283
 C4206 C 0.21118 0.79951 0.42368
 C4207 C 0.22510 0.80132 0.42589
 C4208 C 0.23158 0.79526 0.43651
 C4209 C 0.22450 0.78730 0.44551
 C4210 C 0.21043 0.78541 0.44400
 C4211 C 0.20371 0.77755 0.45372
 C4212 C 0.21078 0.77139 0.46403
 C4213 C 0.22470 0.77290 0.46504
 C4214 C 0.23149 0.78103 0.45592
 H4215 H 0.22139 0.81693 0.40417
 H4216 H 0.17339 0.80543 0.39782
 H4217 H 0.20965 0.82549 0.38540
 H4218 H 0.17307 0.79227 0.41771
 H4219 H 0.18375 0.78279 0.43656
 H4220 H 0.23142 0.80717 0.41940
 H4221 H 0.24232 0.79677 0.43766
 H4222 H 0.19301 0.77589 0.45365
 H4223 H 0.20542 0.76518 0.47113
 H4224 H 0.24230 0.78224 0.45682
 C4225 C 0.69202 0.70969 0.59566
 C4226 C 0.70010 0.70224 0.58671
 C4227 C 0.70183 0.68816 0.58918
 C4228 C 0.69584 0.68199 0.60027
 C4229 C 0.68783 0.68956 0.60896
 C4230 C 0.68601 0.70343 0.60652
 C4231 C 0.70948 0.68028 0.58055
 C4232 C 0.71544 0.68600 0.56945
 C4233 C 0.71413 0.69997 0.56655
 C4234 C 0.70646 0.70826 0.57542
 C4235 C 0.70551 0.72232 0.57279
 C4236 C 0.71181 0.72812 0.56196
 C4237 C 0.71922 0.72022 0.55319
 C4238 C 0.72039 0.70600 0.55520
 C4239 C 0.72785 0.69848 0.54574
 C4240 C 0.73421 0.70493 0.53513
 C4241 C 0.73330 0.71899 0.53356
 C4242 C 0.72563 0.72655 0.54249
 H4243 H 0.68999 0.72036 0.59458
 H4244 H 0.69721 0.67121 0.60197
 H4245 H 0.68000 0.70960 0.61311
 H4246 H 0.71084 0.66952 0.58238
 H4247 H 0.72120 0.67915 0.56340
 H4248 H 0.70011 0.72927 0.57904
 H4249 H 0.71089 0.73899 0.56045
 H4250 H 0.72905 0.68763 0.54625
 H4251 H 0.74007 0.69895 0.52823
 H4252 H 0.72489 0.73746 0.54119
 C4253 C 0.68568 0.21088 0.09415
 C4254 C 0.69519 0.20426 0.08597
 C4255 C 0.69863 0.19066 0.08916
 C4256 C 0.69313 0.18429 0.10036
 C4257 C 0.68392 0.19112 0.10845
 C4258 C 0.68018 0.20440 0.10515
 C4259 C 0.70755 0.18347 0.08118
 C4260 C 0.71318 0.18942 0.07004
 C4261 C 0.71029 0.20299 0.06652
 C4262 C 0.70137 0.21063 0.07478
 C4263 C 0.69915 0.22446 0.07176
 C4264 C 0.70540 0.23065 0.06109
 C4265 C 0.71393 0.22331 0.05283
 C4266 C 0.71631 0.20931 0.05521
 C4267 C 0.72470 0.20227 0.04618
 C4268 C 0.73088 0.20904 0.03567
 C4269 C 0.72886 0.22293 0.03381
 C4270 C 0.72025 0.23000 0.04227
 H4271 H 0.68214 0.22104 0.09231
 H4272 H 0.69593 0.17392 0.10267
 H4273 H 0.67309 0.20995 0.11121
 H4274 H 0.71022 0.17307 0.08357
 H4275 H 0.72007 0.18314 0.06456
 H4276 H 0.69288 0.23097 0.07767
 H4277 H 0.70356 0.24134 0.05930
 H4278 H 0.72671 0.19156 0.04690
 H4279 H 0.73746 0.20346 0.02909
 H4280 H 0.71867 0.24078 0.04070
 C4281 C 0.19022 0.70952 0.09687
 C4282 C 0.19785 0.70234 0.08736
 C4283 C 0.19989 0.68824 0.08948
 C4284 C 0.19440 0.68174 0.10066
 C4285 C 0.18664 0.68903 0.10978
 C4286 C 0.18473 0.70296 0.10780
 C4287 C 0.20728 0.68067 0.08038
 C4288 C 0.21267 0.68672 0.06915
 C4289 C 0.21092 0.70071 0.06654
 C4290 C 0.20346 0.70866 0.07586
 C4291 C 0.20188 0.72270 0.07340
 C4292 C 0.20745 0.72881 0.06236
 C4293 C 0.21475 0.72126 0.05323
 C4294 C 0.21651 0.70707 0.05502
 C4295 C 0.22388 0.69995 0.04522
 C4296 C 0.22961 0.70676 0.03447
 C4297 C 0.22811 0.72079 0.03312
 C4298 C 0.22050 0.72795 0.04238
 H4299 H 0.18817 0.72023 0.09622
 H4300 H 0.19591 0.67093 0.10207
 H4301 H 0.17899 0.70893 0.11478
 H4302 H 0.20891 0.66990 0.08194
 H4303 H 0.21827 0.68010 0.06272
 H4304 H 0.19645 0.72939 0.07988
 H4305 H 0.20607 0.73965 0.06100
 H4306 H 0.22555 0.68915 0.04559
 H4307 H 0.23549 0.70111 0.02732
 H4308 H 0.21937 0.73885 0.04127
 C4309 C 0.18724 0.20932 0.59571
 C4310 C 0.19556 0.20213 0.58676
 C4311 C 0.19772 0.18812 0.58922
 C4312 C 0.19207 0.18180 0.60037
 C4313 C 0.18401 0.18914 0.60919
 C4314 C 0.18160 0.20291 0.60668
 C4315 C 0.20551 0.18044 0.58055
 C4316 C 0.21127 0.18632 0.56944
 C4317 C 0.20962 0.20026 0.56661
 C4318 C 0.20179 0.20835 0.57552
 C4319 C 0.20067 0.22242 0.57304
 C4320 C 0.20698 0.22843 0.56232
 C4321 C 0.21453 0.22071 0.55351
 C4322 C 0.21579 0.20647 0.55532
 C4323 C 0.22327 0.19911 0.54577
 C4324 C 0.22963 0.20573 0.53529
 C4325 C 0.22872 0.21980 0.53397
 C4326 C 0.22100 0.22723 0.54295
 H4327 H 0.18477 0.21989 0.59454
 H4328 H 0.19385 0.17108 0.60208
 H4329 H 0.17544 0.20888 0.61332
 H4330 H 0.20718 0.16972 0.58237
 H4331 H 0.21721 0.17963 0.56339
 H4332 H 0.19518 0.22923 0.57937
 H4333 H 0.20598 0.23931 0.56095
 H4334 H 0.22444 0.18825 0.54609
 H4335 H 0.23551 0.19988 0.52831
 H4336 H 0.22025 0.23816 0.54180
   
