data_POSCAR
  _audit_creation_date              2014-09-24
  _audit_creation_method            'ToBaCCo'
  _symmetry_space_group_name_H-M    'P1'
  _symmetry_Int_Tables_number       1
  _symmetry_cell_setting            triclinic
  loop_
  _symmetry_equiv_pos_as_xyz
 x,y,z
_cell_length_a 64.7761
_cell_length_b 65.2420
_cell_length_c 65.1949
_cell_angle_alpha 89.874800
_cell_angle_beta 90.016800
_cell_angle_gamma 89.853300
loop_
  _atom_site_label
  _atom_site_type_symbol
  _atom_site_fract_x
  _atom_site_fract_y
  _atom_site_fract_z
N1 N 0.37790 0.32088 0.33658
 N2 N 0.37723 0.33477 0.32197
 C3 C 0.39159 0.33022 0.30774
 C4 C 0.40186 0.31248 0.31373
 C5 C 0.39273 0.30710 0.33220
 H6 H 0.39383 0.33872 0.29368
 H7 H 0.39576 0.29351 0.34121
 Cu8 Cu 0.35601 0.35595 0.32193
 Cu9 Cu 0.35770 0.32004 0.35873
 Cu10 Cu 0.31973 0.35772 0.35859
 N11 N 0.33480 0.37714 0.32192
 N12 N 0.32071 0.37781 0.33639
 C13 C 0.30700 0.39272 0.33193
 C14 C 0.31267 0.40188 0.31357
 C15 C 0.33048 0.39156 0.30772
 H16 H 0.29331 0.39584 0.34086
 H17 H 0.33921 0.39382 0.29379
 N18 N 0.32140 0.33599 0.37966
 N19 N 0.33587 0.32172 0.37972
 C20 C 0.33154 0.30790 0.39446
 C21 C 0.31336 0.31357 0.40413
 C22 C 0.30749 0.33159 0.39437
 H23 H 0.34031 0.29404 0.39704
 H24 H 0.29350 0.34024 0.39693
 H25 H 0.33388 0.33411 0.34279
 H26 H 0.35080 0.35096 0.35857
 N27 N 0.37832 0.82126 -0.16450
 N28 N 0.37720 0.83482 -0.17934
 C29 C 0.39144 0.83028 -0.19369
 C30 C 0.40197 0.81267 -0.18765
 C31 C 0.39324 0.80755 -0.16886
 H32 H 0.39327 0.83875 -0.20779
 H33 H 0.39652 0.79422 -0.15954
 Cu34 Cu 0.35607 0.85602 -0.17913
 Cu35 Cu 0.35837 0.82048 -0.14211
 Cu36 Cu 0.32039 0.85819 -0.14205
 N37 N 0.33477 0.87706 -0.17927
 N38 N 0.32114 0.87813 -0.16444
 C39 C 0.30737 0.89302 -0.16879
 C40 C 0.31253 0.90175 -0.18758
 C41 C 0.33023 0.89126 -0.19360
 H42 H 0.29397 0.89631 -0.15948
 H43 H 0.33876 0.89313 -0.20767
 N44 N 0.32226 0.83653 -0.12092
 N45 N 0.33671 0.82225 -0.12095
 C46 C 0.33244 0.80841 -0.10622
 C47 C 0.31430 0.81408 -0.09646
 C48 C 0.30841 0.83211 -0.10616
 H49 H 0.34120 0.79453 -0.10371
 H50 H 0.29439 0.84072 -0.10359
 H51 H 0.33428 0.83434 -0.15787
 H52 H 0.35146 0.85133 -0.14246
 N53 N 0.87907 0.32348 -0.16195
 N54 N 0.87800 0.33736 -0.17653
 C55 C 0.89100 0.33215 -0.19176
 C56 C 0.90088 0.31400 -0.18641
 C57 C 0.89293 0.30904 -0.16728
 H58 H 0.89286 0.34083 -0.20577
 H59 H 0.89632 0.29557 -0.15819
 Cu60 Cu 0.85927 0.36061 -0.17449
 Cu61 Cu 0.86167 0.32475 -0.13761
 Cu62 Cu 0.81937 0.35730 -0.14185
 N63 N 0.83577 0.37909 -0.17654
 N64 N 0.82024 0.37769 -0.16369
 C65 C 0.80557 0.39129 -0.16908
 C66 C 0.81206 0.40180 -0.18649
 C67 C 0.83148 0.39359 -0.19066
 H68 H 0.79098 0.39278 -0.16120
 H69 H 0.84152 0.39726 -0.20337
 N70 N 0.82158 0.33572 -0.12074
 N71 N 0.83776 0.32354 -0.11895
 C72 C 0.83396 0.30953 -0.10423
 C73 C 0.81438 0.31301 -0.09633
 C74 C 0.80711 0.32985 -0.10717
 H75 H 0.84437 0.29716 -0.10028
 H76 H 0.79198 0.33673 -0.10602
 H77 H 0.83852 0.33596 -0.15584
 H78 H 0.85053 0.35487 -0.13813
 N79 N 0.87736 0.82186 0.33521
 N80 N 0.87685 0.83626 0.32107
 C81 C 0.89110 0.83208 0.30665
 C82 C 0.90117 0.81407 0.31199
 C83 C 0.89206 0.80809 0.33030
 H84 H 0.89346 0.84109 0.29293
 H85 H 0.89502 0.79414 0.33879
 Cu86 Cu 0.85608 0.85772 0.32206
 Cu87 Cu 0.85715 0.82064 0.35748
 Cu88 Cu 0.81922 0.85858 0.35778
 N89 N 0.83441 0.87833 0.32128
 N90 N 0.82019 0.87878 0.33563
 C91 C 0.80623 0.89338 0.33102
 C92 C 0.81179 0.90255 0.31255
 C93 C 0.82992 0.89254 0.30696
 H94 H 0.79252 0.89626 0.34000
 H95 H 0.83882 0.89478 0.29313
 N96 N 0.82089 0.83667 0.37866
 N97 N 0.83519 0.82221 0.37852
 C98 C 0.83078 0.80839 0.39325
 C99 C 0.81275 0.81430 0.40311
 C100 C 0.80706 0.83240 0.39347
 H101 H 0.83938 0.79440 0.39574
 H102 H 0.79327 0.84129 0.39628
 H103 H 0.83365 0.83522 0.34174
 H104 H 0.85026 0.85141 0.35842
 N105 N 0.62295 0.67896 0.33627
 N106 N 0.62381 0.66516 0.32165
 C107 C 0.60941 0.66955 0.30741
 C108 C 0.59894 0.68714 0.31331
 C109 C 0.60797 0.69260 0.33181
 H110 H 0.60732 0.66103 0.29339
 H111 H 0.60468 0.70606 0.34087
 Cu112 Cu 0.64501 0.64405 0.32167
 Cu113 Cu 0.64296 0.67970 0.35863
 Cu114 Cu 0.68078 0.64189 0.35879
 N115 N 0.66610 0.62283 0.32194
 N116 N 0.67996 0.62196 0.33663
 C117 C 0.69361 0.60698 0.33239
 C118 C 0.68811 0.59798 0.31395
 C119 C 0.67048 0.60843 0.30785
 H120 H 0.70720 0.60372 0.34147
 H121 H 0.66192 0.60627 0.29380
 N122 N 0.67905 0.66345 0.37982
 N123 N 0.66468 0.67782 0.37979
 C124 C 0.66906 0.69153 0.39456
 C125 C 0.68716 0.68564 0.40433
 C126 C 0.69291 0.66765 0.39460
 H127 H 0.66037 0.70544 0.39711
 H128 H 0.70686 0.65892 0.39716
 H129 H 0.66684 0.66574 0.34290
 H130 H 0.64965 0.64879 0.35838
 N131 N 0.62166 0.17750 -0.16388
 N132 N 0.62216 0.16322 -0.17804
 C133 C 0.60786 0.16751 -0.19242
 C134 C 0.59782 0.18552 -0.18707
 C135 C 0.60698 0.19131 -0.16875
 H136 H 0.60565 0.15872 -0.20626
 H137 H 0.60415 0.20522 -0.16024
 Cu138 Cu 0.64337 0.14210 -0.17791
 Cu139 Cu 0.64195 0.17876 -0.14182
 Cu140 Cu 0.67995 0.14118 -0.14140
 N141 N 0.66469 0.12110 -0.17753
 N142 N 0.67895 0.12081 -0.16322
 C143 C 0.69298 0.10627 -0.16775
 C144 C 0.68742 0.09697 -0.18611
 C145 C 0.66918 0.10677 -0.19168
 H146 H 0.70676 0.10355 -0.15882
 H147 H 0.66040 0.10453 -0.20556
 N148 N 0.67833 0.16315 -0.12070
 N149 N 0.66388 0.17744 -0.12085
 C150 C 0.66822 0.19137 -0.10626
 C151 C 0.68638 0.18572 -0.09647
 C152 C 0.69222 0.16764 -0.10602
 H153 H 0.65938 0.20519 -0.10375
 H154 H 0.70622 0.15901 -0.10336
 H155 H 0.66563 0.16447 -0.15771
 H156 H 0.64887 0.14791 -0.14141
 N157 N 0.12172 0.67870 -0.16474
 N158 N 0.12129 0.66355 -0.17797
 C159 C 0.10706 0.66765 -0.19248
 C160 C 0.09798 0.68640 -0.18808
 C161 C 0.10768 0.69290 -0.17030
 H162 H 0.10397 0.65794 -0.20554
 H163 H 0.10553 0.70739 -0.16258
 Cu164 Cu 0.14044 0.64074 -0.17572
 Cu165 Cu 0.14210 0.68010 -0.14274
 Cu166 Cu 0.17996 0.64238 -0.14244
 N167 N 0.16332 0.62159 -0.17760
 N168 N 0.17852 0.62197 -0.16426
 C169 C 0.19271 0.60783 -0.16958
 C170 C 0.18613 0.59816 -0.18732
 C171 C 0.16737 0.60733 -0.19194
 H172 H 0.20727 0.60557 -0.16177
 H173 H 0.15762 0.60427 -0.20504
 N174 N 0.17863 0.66450 -0.12184
 N175 N 0.16421 0.67881 -0.12194
 C176 C 0.16859 0.69271 -0.10734
 C177 C 0.18676 0.68702 -0.09758
 C178 C 0.19256 0.66894 -0.10716
 H179 H 0.15977 0.70654 -0.10480
 H180 H 0.20644 0.66016 -0.10442
 H181 H 0.16419 0.66426 -0.15922
 H182 H 0.14889 0.64919 -0.14021
 N183 N 0.12197 0.17881 0.33617
 N184 N 0.12304 0.16522 0.32139
 C185 C 0.10868 0.16970 0.30712
 C186 C 0.09803 0.18712 0.31323
 C187 C 0.10690 0.19238 0.33184
 H188 H 0.10674 0.16137 0.29296
 H189 H 0.10350 0.20572 0.34104
 Cu190 Cu 0.14442 0.14425 0.32119
 Cu191 Cu 0.14190 0.17957 0.35851
 Cu192 Cu 0.17997 0.14205 0.35865
 N193 N 0.16559 0.12306 0.32163
 N194 N 0.17931 0.12212 0.33643
 C195 C 0.19299 0.10714 0.33223
 C196 C 0.18765 0.09820 0.31371
 C197 C 0.17007 0.10869 0.30751
 H198 H 0.20648 0.10383 0.34143
 H199 H 0.16162 0.10660 0.29339
 N200 N 0.17805 0.16361 0.37972
 N201 N 0.16353 0.17783 0.37969
 C202 C 0.16776 0.19163 0.39441
 C203 C 0.18593 0.18599 0.40416
 C204 C 0.19189 0.16803 0.39446
 H205 H 0.15895 0.20547 0.39690
 H206 H 0.20593 0.15945 0.39703
 H207 H 0.16598 0.16587 0.34282
 H208 H 0.14877 0.14866 0.35801
 N209 N 0.62191 0.32206 0.66470
 N210 N 0.62195 0.33693 0.67826
 C211 C 0.60786 0.33284 0.69288
 C212 C 0.59835 0.31444 0.68816
 C213 C 0.60765 0.30809 0.67011
 H214 H 0.60510 0.34232 0.70618
 H215 H 0.60502 0.29384 0.66211
 Cu216 Cu 0.64110 0.35966 0.67604
 Cu217 Cu 0.64200 0.32065 0.64246
 Cu218 Cu 0.67978 0.35820 0.64174
 N219 N 0.66396 0.37879 0.67737
 N220 N 0.67876 0.37855 0.66360
 C221 C 0.69296 0.39273 0.66856
 C222 C 0.68685 0.40228 0.68654
 C223 C 0.66832 0.39299 0.69166
 H224 H 0.70724 0.39511 0.66032
 H225 H 0.65896 0.39592 0.70507
 N226 N 0.67815 0.33619 0.62110
 N227 N 0.66379 0.32190 0.62138
 C228 C 0.66810 0.30794 0.60680
 C229 C 0.68616 0.31357 0.59688
 C230 C 0.69196 0.33169 0.60635
 H231 H 0.65933 0.29410 0.60439
 H232 H 0.70585 0.34037 0.60354
 H233 H 0.66442 0.33617 0.65875
 H234 H 0.64863 0.35151 0.64025
 N235 N 0.62307 0.82106 1.16483
 N236 N 0.62386 0.83498 1.17934
 C237 C 0.60947 0.83073 1.19359
 C238 C 0.59909 0.81312 1.18782
 C239 C 0.60813 0.80747 1.16938
 H240 H 0.60723 0.83941 1.20750
 H241 H 0.60490 0.79387 1.16051
 Cu242 Cu 0.64493 0.85612 1.17918
 Cu243 Cu 0.64312 0.82023 1.14248
 Cu244 Cu 0.68079 0.85806 1.14219
 N245 N 0.66598 0.87729 1.17897
 N246 N 0.67990 0.87809 1.16435
 C247 C 0.69347 0.89308 1.16862
 C248 C 0.68783 0.90220 1.18700
 C249 C 0.67021 0.89176 1.19303
 H250 H 0.70703 0.89633 1.15954
 H251 H 0.66155 0.89393 1.20700
 N252 N 0.67912 0.83640 1.12120
 N253 N 0.66483 0.82203 1.12129
 C254 C 0.66918 0.80833 1.10648
 C255 C 0.68719 0.81422 1.09660
 C256 C 0.69292 0.83220 1.10634
 H257 H 0.66048 0.79448 1.10389
 H258 H 0.70680 0.84093 1.10368
 H259 H 0.66693 0.83431 1.15813
 H260 H 0.64968 0.85114 1.14250
 N261 N 0.12235 0.32144 1.16429
 N262 N 0.12330 0.33520 1.17894
 C263 C 0.10896 0.33084 1.19323
 C264 C 0.09847 0.31332 1.18731
 C265 C 0.10737 0.30788 1.16876
 H266 H 0.10688 0.33935 1.20727
 H267 H 0.10404 0.29440 1.15975
 Cu268 Cu 0.14457 0.35618 1.17888
 Cu269 Cu 0.14230 0.32060 1.14191
 Cu270 Cu 0.18024 0.35814 1.14167
 N271 N 0.16579 0.37723 1.17869
 N272 N 0.17959 0.37804 1.16396
 C273 C 0.19329 0.39292 1.16821
 C274 C 0.18789 0.40195 1.18670
 C275 C 0.17025 0.39158 1.19281
 H276 H 0.20674 0.39619 1.15898
 H277 H 0.16175 0.39369 1.20689
 N278 N 0.17831 0.33659 1.12058
 N279 N 0.16391 0.32232 1.12067
 C280 C 0.16817 0.30856 1.10590
 C281 C 0.18623 0.31428 1.09605
 C282 C 0.19208 0.33226 1.10573
 H283 H 0.15948 0.29467 1.10344
 H284 H 0.20600 0.34092 1.10305
 H285 H 0.16632 0.33441 1.15754
 H286 H 0.14912 0.35149 1.14213
 N287 N 0.12168 0.82238 0.66432
 N288 N 0.12226 0.83669 0.67844
 C289 C 0.10789 0.83262 0.69279
 C290 C 0.09767 0.81481 0.68738
 C291 C 0.10682 0.80879 0.66912
 H292 H 0.10550 0.84164 0.70649
 H293 H 0.10390 0.79484 0.66069
 Cu294 Cu 0.14265 0.85851 0.67792
 Cu295 Cu 0.14198 0.82096 0.64237
 Cu296 Cu 0.18026 0.85787 0.64211
 N297 N 0.16508 0.87827 0.67797
 N298 N 0.17952 0.87826 0.66385
 C299 C 0.19354 0.89279 0.66836
 C300 C 0.18763 0.90240 0.68640
 C301 C 0.16943 0.89274 0.69199
 H302 H 0.20762 0.89526 0.65980
 H303 H 0.16031 0.89557 0.70558
 N304 N 0.17852 0.83599 0.62138
 N305 N 0.16391 0.82196 0.62145
 C306 C 0.16811 0.80800 0.60684
 C307 C 0.18636 0.81336 0.59710
 C308 C 0.19239 0.83132 0.60671
 H309 H 0.15911 0.79433 0.60428
 H310 H 0.20644 0.83978 0.60404
 H311 H 0.16514 0.83534 0.65882
 H312 H 0.14899 0.85177 0.64160
 N313 N 0.37815 0.67894 0.66420
 N314 N 0.37744 0.66506 0.67880
 C315 C 0.39179 0.66947 0.69304
 C316 C 0.40203 0.68715 0.68713
 C317 C 0.39298 0.69266 0.66865
 H318 H 0.39408 0.66087 0.70704
 H319 H 0.39602 0.70630 0.65972
 Cu320 Cu 0.35640 0.64386 0.67861
 Cu321 Cu 0.35805 0.67982 0.64192
 Cu322 Cu 0.32033 0.64208 0.64183
 N323 N 0.33524 0.62279 0.67871
 N324 N 0.32130 0.62206 0.66410
 C325 C 0.30759 0.60722 0.66851
 C326 C 0.31317 0.59814 0.68697
 C327 C 0.33090 0.60842 0.69289
 H328 H 0.29396 0.60412 0.65950
 H329 H 0.33955 0.60621 0.70690
 N330 N 0.32198 0.66379 0.62077
 N331 N 0.33631 0.67811 0.62081
 C332 C 0.33194 0.69192 0.60605
 C333 C 0.31387 0.68616 0.59625
 C334 C 0.30812 0.66813 0.60597
 H335 H 0.34062 0.70579 0.60350
 H336 H 0.29422 0.65943 0.60334
 H337 H 0.33423 0.66572 0.65773
 H338 H 0.35136 0.64890 0.64201
 N339 N 0.37829 0.17836 1.16393
 N340 N 0.37841 0.16352 1.17758
 C341 C 0.39264 0.16771 1.19203
 C342 C 0.40201 0.18619 1.18715
 C343 C 0.39250 0.19242 1.16914
 H344 H 0.39552 0.15827 1.20538
 H345 H 0.39489 0.20670 1.16105
 Cu346 Cu 0.35904 0.14086 1.17590
 Cu347 Cu 0.35806 0.17966 1.14188
 Cu348 Cu 0.32001 0.14244 1.14185
 N349 N 0.33614 0.12170 1.17735
 N350 N 0.32110 0.12217 1.16384
 C351 C 0.30688 0.10806 1.16896
 C352 C 0.31324 0.09822 1.18676
 C353 C 0.33196 0.10732 1.19159
 H354 H 0.29249 0.10587 1.16087
 H355 H 0.34158 0.10419 1.20477
 N356 N 0.32160 0.16433 1.12099
 N357 N 0.33615 0.17842 1.12096
 C358 C 0.33192 0.19232 1.10626
 C359 C 0.31370 0.18687 1.09656
 C360 C 0.30772 0.16891 1.10628
 H361 H 0.34088 0.20600 1.10361
 H362 H 0.29367 0.16041 1.10370
 H363 H 0.33563 0.16435 1.15854
 H364 H 0.35115 0.14875 1.14011
 N365 N 0.87705 0.67843 1.16446
 N366 N 0.87450 0.66666 1.18063
 C367 C 0.88820 0.67195 1.19514
 C368 C 0.90013 0.68793 1.18777
 C369 C 0.89262 0.69157 1.16812
 H370 H 0.88891 0.66507 1.21021
 H371 H 0.89767 0.70320 1.15741
 Cu372 Cu 0.85318 0.64593 1.18169
 Cu373 Cu 0.85930 0.67616 1.14032
 Cu374 Cu 0.81482 0.64742 1.14766
 N375 N 0.83305 0.62402 1.18008
 N376 N 0.81794 0.62471 1.16669
 C377 C 0.80473 0.60930 1.17046
 C378 C 0.81191 0.59828 1.18723
 C379 C 0.83006 0.60805 1.19281
 H380 H 0.79032 0.60722 1.16240
 H381 H 0.83974 0.60463 1.20587
 N382 N 0.81835 0.66648 1.12466
 N383 N 0.83527 0.67727 1.12159
 C384 C 0.83216 0.68988 1.10546
 C385 C 0.81232 0.68679 1.09802
 C386 C 0.80416 0.67173 1.11056
 H387 H 0.84323 0.70106 1.10015
 H388 H 0.78862 0.66577 1.11021
 H389 H 0.83521 0.66978 1.15901
 H390 H 0.84597 0.64724 1.14497
 N391 N 0.87933 0.17689 0.66157
 N392 N 0.87856 0.16322 0.67636
 C393 C 0.89168 0.16869 0.69137
 C394 C 0.90133 0.18681 0.68568
 C395 C 0.89310 0.19146 0.66656
 H396 H 0.89368 0.16022 0.70549
 H397 H 0.89629 0.20476 0.65718
 Cu398 Cu 0.85998 0.13995 0.67483
 Cu399 Cu 0.86172 0.17511 0.63744
 Cu400 Cu 0.81939 0.14291 0.64289
 N401 N 0.83660 0.12165 0.67765
 N402 N 0.82080 0.12277 0.66506
 C403 C 0.80645 0.10907 0.67091
 C404 C 0.81356 0.09891 0.68825
 C405 C 0.83279 0.10735 0.69207
 H406 H 0.79159 0.10724 0.66361
 H407 H 0.84308 0.10370 0.70462
 N408 N 0.82128 0.16422 0.62139
 N409 N 0.83752 0.17619 0.61917
 C410 C 0.83366 0.18996 0.60423
 C411 C 0.81399 0.18655 0.59662
 C412 C 0.80670 0.17000 0.60782
 H413 H 0.84412 0.20208 0.59986
 H414 H 0.79149 0.16332 0.60689
 H415 H 0.83878 0.16430 0.65618
 H416 H 0.85039 0.14500 0.63857
 N417 N 0.32059 0.37767 0.66471
 N418 N 0.33466 0.37684 0.67922
 C419 C 0.33046 0.39126 0.69336
 C420 C 0.31269 0.40168 0.68753
 C421 C 0.30695 0.39260 0.66918
 H422 H 0.33926 0.39345 0.70725
 H423 H 0.29328 0.39585 0.66022
 Cu424 Cu 0.35594 0.35575 0.67893
 Cu425 Cu 0.31955 0.35775 0.64245
 Cu426 Cu 0.35758 0.32012 0.64202
 N427 N 0.37716 0.33462 0.67879
 N428 N 0.37788 0.32086 0.66411
 C429 C 0.39285 0.30717 0.66838
 C430 C 0.40204 0.31254 0.68680
 C431 C 0.39169 0.33015 0.69286
 H432 H 0.39596 0.29363 0.65935
 H433 H 0.39398 0.33863 0.70689
 N434 N 0.33562 0.32193 0.62114
 N435 N 0.32113 0.33618 0.62132
 C436 C 0.30711 0.33186 0.60671
 C437 C 0.31290 0.31390 0.59689
 C438 C 0.33117 0.30819 0.60643
 H439 H 0.29307 0.34049 0.60430
 H440 H 0.33994 0.29435 0.60378
 H441 H 0.33384 0.33400 0.65809
 H442 H 0.35069 0.35102 0.64231
 N443 N 0.32107 0.87843 0.16426
 N444 N 0.33519 0.87764 0.17871
 C445 C 0.33095 0.89197 0.19294
 C446 C 0.31316 0.90237 0.18715
 C447 C 0.30741 0.89333 0.16877
 H448 H 0.33966 0.89401 0.20691
 H449 H 0.29380 0.89662 0.15976
 Cu450 Cu 0.35642 0.85654 0.17845
 Cu451 Cu 0.31999 0.85852 0.14198
 Cu452 Cu 0.35794 0.82078 0.14165
 N453 N 0.37757 0.83537 0.17837
 N454 N 0.37819 0.82151 0.16379
 C455 C 0.39305 0.80773 0.16818
 C456 C 0.40222 0.81311 0.18663
 C457 C 0.39197 0.83083 0.19256
 H458 H 0.39610 0.79419 0.15915
 H459 H 0.39416 0.83931 0.20660
 N460 N 0.33600 0.82263 0.12072
 N461 N 0.32156 0.83692 0.12086
 C462 C 0.30757 0.83264 0.10620
 C463 C 0.31334 0.81469 0.09638
 C464 C 0.33156 0.80891 0.10598
 H465 H 0.29359 0.84135 0.10371
 H466 H 0.34028 0.79504 0.10334
 H467 H 0.33424 0.83480 0.15761
 H468 H 0.35109 0.85170 0.14178
 N469 N 0.81775 0.37540 0.16666
 N470 N 0.83279 0.37559 0.18014
 C471 C 0.83002 0.39141 0.19302
 C472 C 0.81207 0.40164 0.18752
 C473 C 0.80478 0.39104 0.17056
 H474 H 0.83970 0.39439 0.20617
 H475 H 0.79045 0.39357 0.16245
 Cu476 Cu 0.85246 0.35326 0.18199
 Cu477 Cu 0.81457 0.35299 0.14731
 Cu478 Cu 0.85909 0.32416 0.13994
 N479 N 0.87425 0.33303 0.18029
 N480 N 0.87705 0.32171 0.16389
 C481 C 0.89297 0.30880 0.16726
 C482 C 0.90044 0.31216 0.18694
 C483 C 0.88813 0.32771 0.19465
 H484 H 0.89827 0.29751 0.15634
 H485 H 0.88870 0.33423 0.20986
 N486 N 0.83509 0.32323 0.12120
 N487 N 0.81811 0.33401 0.12425
 C488 C 0.80390 0.32864 0.11023
 C489 C 0.81215 0.31352 0.09778
 C490 C 0.83204 0.31057 0.10519
 H491 H 0.78830 0.33452 0.10991
 H492 H 0.84318 0.29937 0.09999
 H493 H 0.83465 0.33017 0.15854
 H494 H 0.84569 0.35298 0.14516
 N495 N 0.81783 0.87510 0.66683
 N496 N 0.83378 0.87710 0.67911
 C497 C 0.83054 0.89325 0.69154
 C498 C 0.81144 0.90176 0.68686
 C499 C 0.80390 0.88980 0.67102
 H500 H 0.84085 0.89781 0.70373
 H501 H 0.78885 0.89084 0.66391
 Cu502 Cu 0.85559 0.85651 0.67964
 Cu503 Cu 0.81491 0.85179 0.64855
 Cu504 Cu 0.86062 0.82575 0.63879
 N505 N 0.87666 0.83523 0.67867
 N506 N 0.87866 0.82321 0.66266
 C507 C 0.89368 0.80938 0.66638
 C508 C 0.90144 0.81276 0.68593
 C509 C 0.89024 0.82940 0.69318
 H510 H 0.89806 0.79739 0.65581
 H511 H 0.89124 0.83629 0.70820
 N512 N 0.83601 0.82351 0.62115
 N513 N 0.81854 0.83309 0.62521
 C514 C 0.80414 0.82722 0.61161
 C515 C 0.81281 0.81301 0.59841
 C516 C 0.83312 0.81109 0.60492
 H517 H 0.78823 0.83224 0.61196
 H518 H 0.84473 0.80082 0.59887
 H519 H 0.83742 0.83117 0.65898
 H520 H 0.84541 0.85400 0.64365
 N521 N 0.67930 0.62214 0.66528
 N522 N 0.66569 0.62340 0.68015
 C523 C 0.66962 0.60873 0.69414
 C524 C 0.68678 0.59773 0.68791
 C525 C 0.69244 0.60660 0.66939
 H526 H 0.66109 0.60673 0.70823
 H527 H 0.70588 0.60291 0.66028
 Cu528 Cu 0.64540 0.64526 0.68150
 Cu529 Cu 0.68037 0.64243 0.64331
 Cu530 Cu 0.64241 0.68000 0.64327
 N531 N 0.62341 0.66544 0.68016
 N532 N 0.62207 0.67892 0.66523
 C533 C 0.60659 0.69211 0.66939
 C534 C 0.59784 0.68664 0.68802
 C535 C 0.60884 0.66953 0.69425
 H536 H 0.60294 0.70550 0.66027
 H537 H 0.60695 0.66117 0.70845
 N538 N 0.66439 0.67861 0.62243
 N539 N 0.67886 0.66435 0.62247
 C540 C 0.69282 0.66883 0.60784
 C541 C 0.68699 0.68687 0.59812
 C542 C 0.66878 0.69252 0.60778
 H543 H 0.70682 0.66017 0.60529
 H544 H 0.65994 0.70634 0.60517
 H545 H 0.66662 0.66635 0.65890
 H546 H 0.64904 0.64883 0.64450
 N547 N 0.67750 0.12073 0.16220
 N548 N 0.66367 0.12158 0.17688
 C549 C 0.66898 0.10835 0.19186
 C550 C 0.68717 0.09854 0.18624
 C551 C 0.69203 0.10682 0.16722
 H552 H 0.66038 0.10639 0.20592
 H553 H 0.70535 0.10345 0.15783
 Cu554 Cu 0.64028 0.14022 0.17518
 Cu555 Cu 0.67596 0.13825 0.13804
 Cu556 Cu 0.64336 0.18030 0.14288
 N557 N 0.62165 0.16344 0.17746
 N558 N 0.62291 0.17908 0.16480
 C559 C 0.60902 0.19340 0.17037
 C560 C 0.59854 0.18645 0.18757
 C561 C 0.60702 0.16732 0.19161
 H562 H 0.60730 0.20813 0.16293
 H563 H 0.60322 0.15716 0.20416
 N564 N 0.66499 0.17833 0.12164
 N565 N 0.67713 0.16219 0.11965
 C566 C 0.69107 0.16594 0.10480
 C567 C 0.68760 0.18542 0.09700
 C568 C 0.67083 0.19273 0.10803
 H569 H 0.70335 0.15551 0.10061
 H570 H 0.66401 0.20782 0.10693
 H571 H 0.66489 0.16108 0.15657
 H572 H 0.64560 0.14943 0.13890
 N573 N 0.17875 0.62227 0.16423
 N574 N 0.16440 0.62289 0.17842
 C575 C 0.16852 0.60856 0.19274
 C576 C 0.18647 0.59834 0.18730
 C577 C 0.19247 0.60746 0.16901
 H578 H 0.15949 0.60624 0.20647
 H579 H 0.20639 0.60438 0.16040
 Cu580 Cu 0.14260 0.64342 0.17811
 Cu581 Cu 0.17987 0.64229 0.14205
 Cu582 Cu 0.14202 0.67995 0.14148
 N583 N 0.12212 0.66525 0.17789
 N584 N 0.12171 0.67928 0.16345
 C585 C 0.10697 0.69317 0.16790
 C586 C 0.09765 0.68763 0.18624
 C587 C 0.10770 0.66974 0.19205
 H588 H 0.10410 0.70687 0.15901
 H589 H 0.10534 0.66106 0.20596
 N590 N 0.16395 0.67815 0.12065
 N591 N 0.17844 0.66392 0.12091
 C592 C 0.19249 0.66828 0.10632
 C593 C 0.18669 0.68623 0.09642
 C594 C 0.16839 0.69191 0.10589
 H595 H 0.20654 0.65966 0.10395
 H596 H 0.15957 0.70570 0.10313
 H597 H 0.16524 0.66558 0.15803
 H598 H 0.14870 0.64896 0.14156
 N599 N 0.17827 0.12164 0.66564
 N600 N 0.16387 0.12208 0.67981
 C601 C 0.16811 0.10777 0.69412
 C602 C 0.18614 0.09776 0.68866
 C603 C 0.19210 0.10691 0.67040
 H604 H 0.15915 0.10532 0.70789
 H605 H 0.20614 0.10400 0.66192
 Cu606 Cu 0.14198 0.14247 0.67970
 Cu607 Cu 0.17939 0.14195 0.64375
 Cu608 Cu 0.14174 0.17981 0.64387
 N609 N 0.12159 0.16436 0.67986
 N610 N 0.12130 0.17879 0.66579
 C611 C 0.10652 0.19255 0.67053
 C612 C 0.09715 0.18651 0.68868
 C613 C 0.10713 0.16850 0.69409
 H614 H 0.10365 0.20655 0.66208
 H615 H 0.10450 0.15945 0.70773
 N616 N 0.16373 0.17830 0.62299
 N617 N 0.17802 0.16386 0.62291
 C618 C 0.19189 0.16811 0.60812
 C619 C 0.18622 0.18620 0.59842
 C620 C 0.16817 0.19210 0.60825
 H621 H 0.20570 0.15923 0.60540
 H622 H 0.15947 0.20601 0.60564
 H623 H 0.16481 0.16494 0.66022
 H624 H 0.14823 0.14880 0.64329
 N625 N 0.32125 0.62177 0.33538
 N626 N 0.33569 0.62222 0.32126
 C627 C 0.33155 0.60794 0.30698
 C628 C 0.31351 0.59792 0.31238
 C629 C 0.30747 0.60711 0.33061
 H630 H 0.34069 0.60549 0.29334
 H631 H 0.29341 0.60430 0.33907
 Cu632 Cu 0.35781 0.64226 0.32165
 Cu633 Cu 0.32015 0.64185 0.35740
 Cu634 Cu 0.35782 0.67943 0.35760
 N635 N 0.37789 0.66432 0.32149
 N636 N 0.37819 0.67857 0.33569
 C637 C 0.39290 0.69237 0.33101
 C638 C 0.40222 0.68656 0.31277
 C639 C 0.39228 0.66863 0.30726
 H640 H 0.39559 0.70633 0.33950
 H641 H 0.39485 0.65968 0.29356
 N642 N 0.33587 0.67781 0.37847
 N643 N 0.32152 0.66351 0.37840
 C644 C 0.30751 0.66785 0.39304
 C645 C 0.31315 0.68587 0.40276
 C646 C 0.33135 0.69161 0.39314
 H647 H 0.29361 0.65912 0.39560
 H648 H 0.34002 0.70547 0.39575
 H649 H 0.33490 0.66481 0.34103
 H650 H 0.35135 0.64844 0.35803
 N651 N 0.32157 0.12180 0.83580
 N652 N 0.33552 0.12264 0.82122
 C653 C 0.33131 0.10820 0.80710
 C654 C 0.31370 0.09771 0.81310
 C655 C 0.30805 0.10679 0.83149
 H656 H 0.33990 0.10615 0.79306
 H657 H 0.29455 0.10348 0.84063
 Cu658 Cu 0.35653 0.14390 0.82121
 Cu659 Cu 0.32037 0.14183 0.85794
 Cu660 Cu 0.35785 0.17980 0.85793
 N661 N 0.37758 0.16510 0.82131
 N662 N 0.37812 0.17901 0.83583
 C663 C 0.39301 0.19270 0.83149
 C664 C 0.40232 0.18719 0.81315
 C665 C 0.39211 0.16950 0.80722
 H666 H 0.39603 0.20625 0.84050
 H667 H 0.39447 0.16090 0.79328
 N668 N 0.33596 0.17798 0.87888
 N669 N 0.32174 0.16355 0.87890
 C670 C 0.30772 0.16781 0.89355
 C671 C 0.31324 0.18592 0.90318
 C672 C 0.33135 0.19179 0.89351
 H673 H 0.29387 0.15900 0.89613
 H674 H 0.33986 0.20578 0.89600
 H675 H 0.33424 0.16560 0.84207
 H676 H 0.35142 0.14886 0.85787
 N677 N 0.82097 0.62198 0.83506
 N678 N 0.83520 0.62249 0.82071
 C679 C 0.83103 0.60804 0.80661
 C680 C 0.81315 0.59786 0.81234
 C681 C 0.80728 0.60716 0.83058
 H682 H 0.83997 0.60561 0.79284
 H683 H 0.79349 0.60419 0.83942
 Cu684 Cu 0.85664 0.64325 0.82109
 Cu685 Cu 0.82005 0.64206 0.85728
 Cu686 Cu 0.85831 0.67936 0.85736
 N687 N 0.87775 0.66434 0.82071
 N688 N 0.87848 0.67833 0.83516
 C689 C 0.89334 0.69197 0.83058
 C690 C 0.90241 0.68632 0.81217
 C691 C 0.89211 0.66862 0.80643
 H692 H 0.89633 0.70570 0.83933
 H693 H 0.89435 0.65992 0.79253
 N694 N 0.83646 0.67787 0.87835
 N695 N 0.82186 0.66380 0.87829
 C696 C 0.80801 0.66832 0.89302
 C697 C 0.81404 0.68620 0.90279
 C698 C 0.83226 0.69168 0.89310
 H699 H 0.79395 0.65985 0.89559
 H700 H 0.84119 0.70537 0.89573
 H701 H 0.83448 0.66545 0.84146
 H702 H 0.85115 0.64850 0.85757
 N703 N 0.82183 0.12142 0.33573
 N704 N 0.83657 0.12172 0.32190
 C705 C 0.83254 0.10762 0.30742
 C706 C 0.81428 0.09782 0.31246
 C707 C 0.80798 0.10695 0.33061
 H708 H 0.84186 0.10517 0.29391
 H709 H 0.79376 0.10416 0.33883
 Cu710 Cu 0.85854 0.14174 0.32341
 Cu711 Cu 0.82030 0.14168 0.35776
 Cu712 Cu 0.85779 0.17990 0.35748
 N713 N 0.87813 0.16402 0.32160
 N714 N 0.87816 0.17875 0.33533
 C715 C 0.89247 0.19275 0.33005
 C716 C 0.90175 0.18656 0.31191
 C717 C 0.89222 0.16822 0.30705
 H718 H 0.89508 0.20694 0.33817
 H719 H 0.89490 0.15891 0.29362
 N720 N 0.83567 0.17824 0.37835
 N721 N 0.82150 0.16373 0.37847
 C722 C 0.80754 0.16796 0.39318
 C723 C 0.81302 0.18609 0.40277
 C724 C 0.83105 0.19205 0.39298
 H725 H 0.79382 0.15901 0.39595
 H726 H 0.83958 0.20602 0.39549
 H727 H 0.83511 0.16453 0.34149
 H728 H 0.85125 0.14902 0.35939
 N729 N 0.67858 0.37830 0.33501
 N730 N 0.66444 0.37757 0.32057
 C731 C 0.66859 0.39193 0.30632
 C732 C 0.68631 0.40225 0.31210
 C733 C 0.69216 0.39321 0.33047
 H734 H 0.65978 0.39418 0.29242
 H735 H 0.70594 0.39636 0.33927
 Cu736 Cu 0.64337 0.35649 0.32077
 Cu737 Cu 0.67977 0.35822 0.35720
 Cu738 Cu 0.64214 0.32030 0.35722
 N739 N 0.62249 0.33522 0.32052
 N740 N 0.62193 0.32116 0.33497
 C741 C 0.60713 0.30745 0.33040
 C742 C 0.59799 0.31314 0.31198
 C743 C 0.60815 0.33091 0.30625
 H744 H 0.60412 0.29372 0.33920
 H745 H 0.60579 0.33967 0.29235
 N746 N 0.66403 0.32209 0.37826
 N747 N 0.67833 0.33647 0.37822
 C748 C 0.69223 0.33225 0.39301
 C749 C 0.68659 0.31425 0.40282
 C750 C 0.66851 0.30837 0.39308
 H751 H 0.70610 0.34102 0.39559
 H752 H 0.65985 0.29450 0.39575
 H753 H 0.66576 0.33459 0.34139
 H754 H 0.64875 0.35122 0.35735
 N755 N 0.67930 0.87826 0.83543
 N756 N 0.66489 0.87811 0.82126
 C757 C 0.66925 0.89247 0.80707
 C758 C 0.68738 0.90225 0.81261
 C759 C 0.69325 0.89281 0.83079
 H760 H 0.66021 0.89515 0.79338
 H761 H 0.70718 0.89555 0.83947
 Cu762 Cu 0.64265 0.85815 0.82145
 Cu763 Cu 0.68000 0.85814 0.85750
 Cu764 Cu 0.64165 0.82125 0.85776
 N765 N 0.62212 0.83647 0.82131
 N766 N 0.62151 0.82234 0.83566
 C767 C 0.60679 0.80862 0.83096
 C768 C 0.59769 0.81431 0.81253
 C769 C 0.60786 0.83215 0.80693
 H770 H 0.60379 0.79490 0.83977
 H771 H 0.60566 0.84091 0.79301
 N772 N 0.66349 0.82255 0.87873
 N773 N 0.67817 0.83651 0.87856
 C774 C 0.69212 0.83184 0.89317
 C775 C 0.68607 0.81395 0.90298
 C776 C 0.66773 0.80864 0.89343
 H777 H 0.70629 0.84018 0.89558
 H778 H 0.65875 0.79497 0.89610
 H779 H 0.66499 0.83528 0.84115
 H780 H 0.64875 0.85208 0.85789
 N781 N 0.17838 0.37795 0.83467
 N782 N 0.16492 0.37675 0.81966
 C783 C 0.16919 0.39125 0.80560
 C784 C 0.18639 0.40210 0.81200
 C785 C 0.19171 0.39325 0.83063
 H786 H 0.16084 0.39323 0.79139
 H787 H 0.20497 0.39684 0.84001
 Cu788 Cu 0.14422 0.35526 0.81873
 Cu789 Cu 0.17913 0.35800 0.85691
 Cu790 Cu 0.14145 0.32036 0.85674
 N791 N 0.12270 0.33456 0.81944
 N792 N 0.12147 0.32110 0.83439
 C793 C 0.10611 0.30787 0.83027
 C794 C 0.09721 0.31327 0.81165
 C795 C 0.10814 0.33039 0.80535
 H796 H 0.10244 0.29468 0.83963
 H797 H 0.10616 0.33879 0.79119
 N798 N 0.16308 0.32209 0.87796
 N799 N 0.17741 0.33641 0.87801
 C800 C 0.19128 0.33207 0.89280
 C801 C 0.18554 0.31404 0.90252
 C802 C 0.16746 0.30828 0.89272
 H803 H 0.20524 0.34071 0.89537
 H804 H 0.15876 0.29441 0.89526
 H805 H 0.16559 0.33405 0.84118
 H806 H 0.14789 0.35142 0.85571
 N807 N 0.17861 0.87821 0.33435
 N808 N 0.16522 0.87656 0.31932
 C809 C 0.16915 0.89100 0.30512
 C810 C 0.18605 0.90227 0.31139
 C811 C 0.19159 0.89379 0.33015
 H812 H 0.16079 0.89266 0.29087
 H813 H 0.20484 0.89778 0.33938
 Cu814 Cu 0.14531 0.85445 0.31805
 Cu815 Cu 0.17972 0.85828 0.35666
 Cu816 Cu 0.14183 0.82084 0.35721
 N817 N 0.12302 0.83473 0.31992
 N818 N 0.12156 0.82161 0.33515
 C819 C 0.10601 0.80849 0.33123
 C820 C 0.09734 0.81363 0.31244
 C821 C 0.10846 0.83049 0.30588
 H822 H 0.10227 0.79536 0.34064
 H823 H 0.10672 0.83856 0.29149
 N824 N 0.16376 0.82252 0.37809
 N825 N 0.17824 0.83669 0.37785
 C826 C 0.19226 0.83228 0.39249
 C827 C 0.18644 0.81437 0.40242
 C828 C 0.16818 0.80875 0.39288
 H829 H 0.20631 0.84084 0.39487
 H830 H 0.15936 0.79499 0.39561
 H831 H 0.16627 0.83390 0.34152
 H832 H 0.14844 0.85188 0.35514
 C833 C 0.25119 1.05555 0.25098
 C834 C 0.26381 1.04492 0.23734
 C835 C 0.26363 1.02345 0.23715
 C836 C 0.25166 1.01212 0.25145
 C837 C 0.23957 1.02348 0.26562
 C838 C 0.23888 1.04494 0.26492
 C839 C 0.25140 0.98887 0.25125
 C840 C 0.23700 0.97756 0.26314
 C841 C 0.23629 0.95609 0.26229
 C842 C 0.24954 0.94553 0.24917
 C843 C 0.26403 0.95613 0.23749
 C844 C 0.26528 0.97751 0.23881
 H845 H 0.25094 1.07218 0.25074
 H846 H 0.27297 1.01610 0.22563
 H847 H 0.23027 1.01616 0.27719
 H848 H 0.22578 0.98492 0.27285
 H849 H 0.24882 0.92895 0.24828
 H850 H 0.27722 0.98477 0.22992
 C851 C 0.24902 0.55561 0.74911
 C852 C 0.26267 0.54496 0.73652
 C853 C 0.26313 0.52349 0.73692
 C854 C 0.24993 0.51213 0.75007
 C855 C 0.23645 0.52354 0.76296
 C856 C 0.23596 0.54502 0.76237
 C857 C 0.25013 0.48882 0.75024
 C858 C 0.23717 0.47744 0.76363
 C859 C 0.23694 0.45597 0.76333
 C860 C 0.24995 0.44533 0.75007
 C861 C 0.26312 0.45594 0.73697
 C862 C 0.26310 0.47742 0.73685
 H863 H 0.24872 0.57223 0.74875
 H864 H 0.27410 0.51625 0.72687
 H865 H 0.22594 0.51630 0.77347
 H866 H 0.22681 0.48469 0.77430
 H867 H 0.24983 0.42871 0.74995
 H868 H 0.27345 0.48465 0.72617
 C869 C 0.75001 -0.05444 0.24994
 C870 C 0.76289 -0.04389 0.26334
 C871 C 0.76288 -0.02242 0.26347
 C872 C 0.75036 -0.01095 0.24968
 C873 C 0.73777 -0.02225 0.23591
 C874 C 0.73740 -0.04373 0.23631
 C875 C 0.75052 0.01234 0.24958
 C876 C 0.73700 0.02382 0.23677
 C877 C 0.73767 0.04528 0.23621
 C878 C 0.75154 0.05581 0.24863
 C879 C 0.76465 0.04510 0.26180
 C880 C 0.76424 0.02362 0.26224
 H881 H 0.74986 -0.07106 0.25007
 H882 H 0.77287 -0.01524 0.27450
 H883 H 0.72799 -0.01492 0.22473
 H884 H 0.72570 0.01664 0.22707
 H885 H 0.75192 0.07243 0.24825
 H886 H 0.77505 0.01629 0.27243
 C887 C 0.75010 0.44414 0.75024
 C888 C 0.76357 0.45469 0.76306
 C889 C 0.76427 0.47614 0.76246
 C890 C 0.75178 0.48756 0.74861
 C891 C 0.73895 0.47621 0.73510
 C892 C 0.73783 0.45477 0.73622
 C893 C 0.75169 0.51086 0.74869
 C894 C 0.73785 0.52227 0.73615
 C895 C 0.73711 0.54373 0.73696
 C896 C 0.75010 0.55428 0.75029
 C897 C 0.76408 0.54364 0.76258
 C898 C 0.76502 0.52220 0.76173
 H899 H 0.74938 0.42754 0.75097
 H900 H 0.77455 0.48336 0.77320
 H901 H 0.72933 0.48350 0.72376
 H902 H 0.72709 0.51503 0.72591
 H903 H 0.74948 0.57088 0.75095
 H904 H 0.77635 0.51494 0.77140
 C905 C 0.25031 0.44506 0.24985
 C906 C 0.26261 0.45565 0.26378
 C907 C 0.26205 0.47713 0.26429
 C908 C 0.25001 0.48851 0.25004
 C909 C 0.23805 0.47720 0.23575
 C910 C 0.23783 0.45572 0.23607
 C911 C 0.24995 0.51178 0.25004
 C912 C 0.23595 0.52316 0.23769
 C913 C 0.23619 0.54464 0.23745
 C914 C 0.24996 0.55525 0.24992
 C915 C 0.26374 0.54457 0.26245
 C916 C 0.26395 0.52309 0.26234
 H917 H 0.25042 0.42844 0.24977
 H918 H 0.27129 0.48443 0.27589
 H919 H 0.22867 0.48454 0.22423
 H920 H 0.22448 0.51587 0.22826
 H921 H 0.24996 0.57188 0.24986
 H922 H 0.27542 0.51574 0.27180
 C923 C 0.75148 1.05580 0.75229
 C924 C 0.76480 1.04537 0.73915
 C925 C 0.76437 1.02389 0.73834
 C926 C 0.75011 1.01242 0.75025
 C927 C 0.73616 1.02363 0.76274
 C928 C 0.73717 1.04503 0.76404
 C929 C 0.74982 0.98916 0.74976
 C930 C 0.73768 0.97768 0.76382
 C931 C 0.73702 0.95623 0.76299
 C932 C 0.74931 0.94573 0.74897
 C933 C 0.76197 0.95646 0.73547
 C934 C 0.76185 0.97794 0.73543
 H935 H 0.75196 1.07240 0.75307
 H936 H 0.77550 1.01666 0.72844
 H937 H 0.72429 1.01625 0.77162
 H938 H 0.72851 0.98489 0.77555
 H939 H 0.74915 0.92911 0.74868
 H940 H 0.77139 0.98536 0.72413
 C941 C 0.75085 0.55501 0.25081
 C942 C 0.76339 0.54425 0.23724
 C943 C 0.76346 0.52283 0.23739
 C944 C 0.75181 0.51164 0.25200
 C945 C 0.73986 0.52307 0.26622
 C946 C 0.73890 0.54451 0.26514
 C947 C 0.75168 0.48846 0.25194
 C948 C 0.73728 0.47717 0.26381
 C949 C 0.73666 0.45573 0.26298
 C950 C 0.74989 0.44516 0.24986
 C951 C 0.76431 0.45580 0.23817
 C952 C 0.76560 0.47714 0.23956
 H953 H 0.75045 0.57163 0.25029
 H954 H 0.77268 0.51544 0.22581
 H955 H 0.73088 0.51580 0.27807
 H956 H 0.72606 0.48454 0.27352
 H957 H 0.74916 0.42858 0.24895
 H958 H 0.77761 0.48440 0.23074
 C959 C 0.25048 -0.05532 0.74975
 C960 C 0.26323 -0.04486 0.76335
 C961 C 0.26327 -0.02339 0.76355
 C962 C 0.25124 -0.01187 0.74940
 C963 C 0.23894 -0.02307 0.73530
 C964 C 0.23817 -0.04454 0.73589
 C965 C 0.25122 0.01139 0.74962
 C966 C 0.23706 0.02291 0.73758
 C967 C 0.23662 0.04438 0.73832
 C968 C 0.24997 0.05479 0.75142
 C969 C 0.26422 0.04400 0.76328
 C970 C 0.26513 0.02257 0.76216
 H971 H 0.25017 -0.07194 0.74990
 H972 H 0.27286 -0.01622 0.77495
 H973 H 0.22959 -0.01561 0.72383
 H974 H 0.22585 0.01572 0.72777
 H975 H 0.24948 0.07139 0.75217
 H976 H 0.27686 0.01515 0.77125
 C977 C 0.25017 0.25064 1.05456
 C978 C 0.23653 0.26332 1.04389
 C979 C 0.23608 0.26298 1.02241
 C980 C 0.24975 0.25032 1.01103
 C981 C 0.26350 0.23768 1.02241
 C982 C 0.26348 0.23768 1.04390
 C983 C 0.24965 0.25031 0.98774
 C984 C 0.26219 0.23655 0.97636
 C985 C 0.26211 0.23660 0.95488
 C986 C 0.24919 0.25000 0.94421
 C987 C 0.23660 0.26366 0.95487
 C988 C 0.23702 0.26405 0.97636
 H989 H 0.25034 0.25078 1.07119
 H990 H 0.22488 0.27281 1.01515
 H991 H 0.27449 0.22766 1.01515
 H992 H 0.27218 0.22551 0.98363
 H993 H 0.24901 0.24986 0.92758
 H994 H 0.22727 0.27527 0.98363
 C995 C 0.24954 0.74958 0.55475
 C996 C 0.23614 0.76255 0.54414
 C997 C 0.23599 0.76259 0.52263
 C998 C 0.24966 0.74994 0.51120
 C999 C 0.26329 0.73716 0.52256
 C1000 C 0.26303 0.73683 0.54404
 C1001 C 0.24971 0.75005 0.48789
 C1002 C 0.26232 0.73634 0.47649
 C1003 C 0.26244 0.73656 0.45499
 C1004 C 0.24968 0.75013 0.44434
 C1005 C 0.23698 0.76369 0.45501
 C1006 C 0.23712 0.76384 0.47651
 H1007 H 0.24954 0.74946 0.57138
 H1008 H 0.22499 0.77266 0.51538
 H1009 H 0.27439 0.72727 0.51527
 H1010 H 0.27220 0.72520 0.48375
 H1011 H 0.24966 0.75015 0.42771
 H1012 H 0.22723 0.77492 0.48379
 C1013 C 0.25031 0.75018 -0.05537
 C1014 C 0.26369 0.76301 -0.04471
 C1015 C 0.26387 0.76286 -0.02323
 C1016 C 0.25024 0.75021 -0.01184
 C1017 C 0.23660 0.73755 -0.02321
 C1018 C 0.23686 0.73737 -0.04471
 C1019 C 0.25024 0.75027 0.01146
 C1020 C 0.23773 0.73655 0.02289
 C1021 C 0.23748 0.73689 0.04438
 C1022 C 0.25006 0.75055 0.05500
 C1023 C 0.26280 0.76401 0.04428
 C1024 C 0.26274 0.76407 0.02279
 H1025 H 0.25036 0.75017 -0.07201
 H1026 H 0.27490 0.77280 -0.01598
 H1027 H 0.22554 0.72764 -0.01592
 H1028 H 0.22797 0.72538 0.01566
 H1029 H 0.24997 0.75067 0.07163
 H1030 H 0.27259 0.77515 0.01549
 C1031 C 0.24957 0.24979 0.44554
 C1032 C 0.26298 0.26256 0.45623
 C1033 C 0.26322 0.26229 0.47772
 C1034 C 0.24956 0.24960 0.48908
 C1035 C 0.23595 0.23698 0.47768
 C1036 C 0.23618 0.23690 0.45619
 C1037 C 0.24949 0.24957 0.51238
 C1038 C 0.23688 0.23587 0.52377
 C1039 C 0.23664 0.23614 0.54527
 C1040 C 0.24932 0.24969 0.55591
 C1041 C 0.26207 0.26315 0.54522
 C1042 C 0.26200 0.26330 0.52374
 H1043 H 0.24956 0.24985 0.42891
 H1044 H 0.27427 0.27218 0.48499
 H1045 H 0.22493 0.22700 0.48494
 H1046 H 0.22705 0.22477 0.51651
 H1047 H 0.24927 0.24975 0.57255
 H1048 H 0.27188 0.27438 0.51647
 C1049 C 0.75102 0.75106 1.05463
 C1050 C 0.73827 0.76457 1.04390
 C1051 C 0.73851 0.76479 1.02241
 C1052 C 0.75101 0.75090 1.01112
 C1053 C 0.76358 0.73717 1.02257
 C1054 C 0.76380 0.73753 1.04405
 C1055 C 0.75079 0.75060 0.98783
 C1056 C 0.76448 0.73792 0.97650
 C1057 C 0.76386 0.73729 0.95503
 C1058 C 0.75007 0.74977 0.94432
 C1059 C 0.73671 0.76273 0.95493
 C1060 C 0.73682 0.76295 0.97641
 H1061 H 0.75092 0.75102 1.07127
 H1062 H 0.72869 0.77593 1.01507
 H1063 H 0.77328 0.72588 1.01536
 H1064 H 0.77586 0.72832 0.98382
 H1065 H 0.74981 0.74948 0.92768
 H1066 H 0.72575 0.77291 0.98365
 C1067 C 0.75078 0.25106 0.55499
 C1068 C 0.73682 0.26336 0.54428
 C1069 C 0.73642 0.26294 0.52279
 C1070 C 0.75063 0.25083 0.51149
 C1071 C 0.76487 0.23877 0.52289
 C1072 C 0.76461 0.23858 0.54439
 C1073 C 0.75051 0.25066 0.48823
 C1074 C 0.76246 0.23633 0.47693
 C1075 C 0.76244 0.23635 0.45544
 C1076 C 0.74984 0.25004 0.44474
 C1077 C 0.73770 0.26414 0.45535
 C1078 C 0.73839 0.26481 0.47682
 H1079 H 0.75079 0.25111 0.57163
 H1080 H 0.72475 0.27215 0.51541
 H1081 H 0.77639 0.22936 0.51558
 H1082 H 0.77188 0.22487 0.48432
 H1083 H 0.74957 0.24979 0.42810
 H1084 H 0.72929 0.27655 0.48411
 C1085 C 0.75115 0.24829 -0.05510
 C1086 C 0.76544 0.26026 -0.04458
 C1087 C 0.76638 0.25944 -0.02312
 C1088 C 0.75229 0.24740 -0.01163
 C1089 C 0.73780 0.23558 -0.02283
 C1090 C 0.73757 0.23570 -0.04432
 C1091 C 0.75252 0.24738 0.01163
 C1092 C 0.74050 0.23327 0.02310
 C1093 C 0.74005 0.23387 0.04458
 C1094 C 0.75231 0.24786 0.05511
 C1095 C 0.76469 0.26161 0.04434
 C1096 C 0.76449 0.26170 0.02284
 H1097 H 0.75064 0.24872 -0.07173
 H1098 H 0.77821 0.26847 -0.01587
 H1099 H 0.72635 0.22623 -0.01537
 H1100 H 0.73125 0.22165 0.01585
 H1101 H 0.75208 0.24817 0.07175
 H1102 H 0.77363 0.27329 0.01538
 C1103 C 0.75024 0.75007 0.44543
 C1104 C 0.76295 0.76362 0.45605
 C1105 C 0.76323 0.76343 0.47754
 C1106 C 0.75143 0.74904 0.48890
 C1107 C 0.73928 0.73498 0.47757
 C1108 C 0.73832 0.73586 0.45613
 C1109 C 0.75160 0.74882 0.51215
 C1110 C 0.73730 0.73688 0.52351
 C1111 C 0.73753 0.73666 0.54500
 C1112 C 0.75134 0.74906 0.55563
 C1113 C 0.76534 0.76127 0.54495
 C1114 C 0.76586 0.76079 0.52348
 H1115 H 0.74976 0.75047 0.42880
 H1116 H 0.77267 0.77483 0.48489
 H1117 H 0.73035 0.72316 0.48492
 H1118 H 0.72566 0.72769 0.51617
 H1119 H 0.75114 0.74927 0.57226
 H1120 H 0.77746 0.77004 0.51612
 C1121 C 1.05542 0.25053 0.25048
 C1122 C 1.04463 0.23772 0.26377
 C1123 C 1.02301 0.23780 0.26375
 C1124 C 1.01166 0.25010 0.24973
 C1125 C 1.02320 0.26253 0.23598
 C1126 C 1.04482 0.26306 0.23672
 C1127 C 0.98822 0.24981 0.24930
 C1128 C 0.97685 0.26318 0.23631
 C1129 C 0.95528 0.26234 0.23535
 C1130 C 0.94450 0.24855 0.24762
 C1131 C 0.95509 0.23563 0.26105
 C1132 C 0.97671 0.23613 0.26181
 H1133 H 1.07217 0.25064 0.25077
 H1134 H 1.01564 0.22791 0.27475
 H1135 H 1.01595 0.27213 0.22461
 H1136 H 0.98418 0.27456 0.22683
 H1137 H 0.92777 0.24816 0.24702
 H1138 H 0.98396 0.22544 0.27216
 C1139 C 0.55606 0.25052 0.75060
 C1140 C 0.54540 0.23611 0.76228
 C1141 C 0.52381 0.23533 0.76147
 C1142 C 0.51234 0.24954 0.74953
 C1143 C 0.52366 0.26406 0.73786
 C1144 C 0.54530 0.26431 0.73817
 C1145 C 0.48895 0.24935 0.74944
 C1146 C 0.47746 0.26119 0.73513
 C1147 C 0.45584 0.26180 0.73582
 C1148 C 0.44522 0.24959 0.74982
 C1149 C 0.45601 0.23719 0.76357
 C1150 C 0.47763 0.23752 0.76385
 H1151 H 0.57280 0.25087 0.75103
 H1152 H 0.51647 0.22337 0.77022
 H1153 H 0.51615 0.27561 0.72866
 H1154 H 0.48482 0.27029 0.72343
 H1155 H 0.42848 0.24971 0.75000
 H1156 H 0.48510 0.22837 0.77546
 C1157 C -0.05750 0.25088 0.74906
 C1158 C -0.04690 0.26318 0.76296
 C1159 C -0.02527 0.26248 0.76375
 C1160 C -0.01373 0.25035 0.74975
 C1161 C -0.02506 0.23835 0.73554
 C1162 C -0.04669 0.23821 0.73563
 C1163 C 0.00971 0.25017 0.75002
 C1164 C 0.02125 0.23613 0.73792
 C1165 C 0.04290 0.23606 0.73818
 C1166 C 0.05348 0.24965 0.75084
 C1167 C 0.04267 0.26359 0.76294
 C1168 C 0.02105 0.26407 0.76236
 H1169 H -0.07424 0.25105 0.74881
 H1170 H -0.01798 0.27168 0.77535
 H1171 H -0.01761 0.22881 0.72428
 H1172 H 0.01395 0.22483 0.72836
 H1173 H 0.07022 0.24949 0.75116
 H1174 H 0.01361 0.27568 0.77149
 C1175 C 0.44427 0.24871 0.25108
 C1176 C 0.45501 0.26135 0.26454
 C1177 C 0.47664 0.26097 0.26487
 C1178 C 0.48805 0.24874 0.25086
 C1179 C 0.47658 0.23656 0.23690
 C1180 C 0.45495 0.23613 0.23744
 C1181 C 0.51149 0.24877 0.25074
 C1182 C 0.52293 0.23481 0.23847
 C1183 C 0.54457 0.23525 0.23801
 C1184 C 0.55527 0.24918 0.25016
 C1185 C 0.54457 0.26281 0.26271
 C1186 C 0.52293 0.26281 0.26283
 H1187 H 0.42753 0.24874 0.25114
 H1188 H 0.48402 0.27051 0.27614
 H1189 H 0.48393 0.22712 0.22550
 H1190 H 0.51557 0.22332 0.22920
 H1191 H 0.57202 0.24938 0.24988
 H1192 H 0.51558 0.27419 0.27229
 C1193 C 1.05543 0.75045 0.74929
 C1194 C 1.04485 0.73617 0.76120
 C1195 C 1.02323 0.73554 0.76068
 C1196 C 1.01168 0.74970 0.74871
 C1197 C 1.02296 0.76419 0.73696
 C1198 C 1.04460 0.76432 0.73703
 C1199 C 0.98829 0.74936 0.74847
 C1200 C 0.97680 0.76107 0.73404
 C1201 C 0.95516 0.76100 0.73413
 C1202 C 0.94456 0.74839 0.74777
 C1203 C 0.95536 0.73641 0.76191
 C1204 C 0.97695 0.73734 0.76271
 H1205 H 1.07217 0.75075 0.74951
 H1206 H 1.01592 0.72368 0.76961
 H1207 H 1.01541 0.77577 0.72783
 H1208 H 0.98415 0.77046 0.72258
 H1209 H 0.92782 0.74810 0.74757
 H1210 H 0.98443 0.72841 0.77450
 C1211 C 0.55587 0.75032 0.25067
 C1212 C 0.54513 0.73701 0.26350
 C1213 C 0.52351 0.73678 0.26326
 C1214 C 0.51208 0.74994 0.25008
 C1215 C 0.52357 0.76313 0.23703
 C1216 C 0.54520 0.76333 0.23741
 C1217 C 0.48862 0.74987 0.24995
 C1218 C 0.47717 0.76266 0.23642
 C1219 C 0.45556 0.76257 0.23634
 C1220 C 0.44482 0.74947 0.24939
 C1221 C 0.45551 0.73667 0.26286
 C1222 C 0.47713 0.73704 0.26337
 H1223 H 0.57261 0.75046 0.25092
 H1224 H 0.51620 0.72602 0.27345
 H1225 H 0.51630 0.77366 0.22654
 H1226 H 0.48447 0.77301 0.22582
 H1227 H 0.42807 0.74933 0.24914
 H1228 H 0.48441 0.72694 0.27426
 C1229 C -0.05602 0.75144 0.24858
 C1230 C -0.04537 0.76437 0.26184
 C1231 C -0.02375 0.76376 0.26254
 C1232 C -0.01230 0.74991 0.25017
 C1233 C -0.02373 0.73649 0.23738
 C1234 C -0.04530 0.73750 0.23642
 C1235 C 0.01114 0.74968 0.25033
 C1236 C 0.02255 0.73750 0.23628
 C1237 C 0.04416 0.73753 0.23624
 C1238 C 0.05489 0.75027 0.24959
 C1239 C 0.04423 0.76262 0.26346
 C1240 C 0.02261 0.76196 0.26420
 H1241 H -0.07275 0.75197 0.24799
 H1242 H -0.01642 0.77453 0.27266
 H1243 H -0.01644 0.72499 0.22802
 H1244 H 0.01521 0.72781 0.22512
 H1245 H 0.07163 0.75053 0.24923
 H1246 H 0.01528 0.77151 0.27552
 C1247 C 0.44433 0.75037 0.75016
 C1248 C 0.45502 0.76332 0.76334
 C1249 C 0.47663 0.76354 0.76320
 C1250 C 0.48807 0.75142 0.74915
 C1251 C 0.47664 0.73895 0.73541
 C1252 C 0.45504 0.73805 0.73632
 C1253 C 0.51150 0.75155 0.74908
 C1254 C 0.52299 0.73771 0.73676
 C1255 C 0.54462 0.73743 0.73719
 C1256 C 0.55525 0.75073 0.75012
 C1257 C 0.54448 0.76463 0.76228
 C1258 C 0.52288 0.76524 0.76162
 H1259 H 0.42759 0.74998 0.75056
 H1260 H 0.48394 0.77335 0.77427
 H1261 H 0.48399 0.72952 0.72400
 H1262 H 0.51569 0.72661 0.72697
 H1263 H 0.57199 0.75037 0.75060
 H1264 H 0.51551 0.77666 0.77103
 C1265 C 0.42142 0.30547 0.28117
 C1266 C 0.41713 0.30039 0.30173
 C1267 C 0.42678 0.28298 0.31031
 C1268 C 0.43979 0.27063 0.29843
 C1269 C 0.44332 0.27544 0.27780
 C1270 C 0.43429 0.29304 0.26931
 H1271 H 0.41441 0.31869 0.27395
 H1272 H 0.42405 0.27862 0.32609
 H1273 H 0.44658 0.25699 0.30514
 H1274 H 0.43689 0.29691 0.25335
 C1275 C 0.42563 0.78334 0.80901
 C1276 C 0.41665 0.80141 0.80098
 C1277 C 0.42210 0.80746 0.78090
 C1278 C 0.43514 0.79531 0.76895
 C1279 C 0.44329 0.77707 0.77685
 C1280 C 0.43880 0.77130 0.79702
 H1281 H 0.42230 0.77811 0.82439
 H1282 H 0.41590 0.82120 0.77395
 H1283 H 0.43848 0.79988 0.75331
 H1284 H 0.44501 0.75717 0.80327
 C1285 C -0.08203 0.30603 0.77997
 C1286 C -0.08451 0.30176 0.80098
 C1287 C -0.07342 0.28525 0.80961
 C1288 C -0.06056 0.27306 0.79740
 C1289 C -0.05872 0.27707 0.77637
 C1290 C -0.06938 0.29371 0.76777
 H1291 H -0.09026 0.31853 0.77272
 H1292 H -0.07481 0.28157 0.82573
 H1293 H -0.05252 0.26016 0.80421
 H1294 H -0.06809 0.29697 0.75152
 C1295 C -0.08110 0.80680 0.27855
 C1296 C -0.08364 0.80243 0.29955
 C1297 C -0.07224 0.78620 0.30826
 C1298 C -0.05904 0.77433 0.29612
 C1299 C -0.05717 0.77838 0.27509
 C1300 C -0.06811 0.79477 0.26642
 H1301 H -0.08965 0.81906 0.27125
 H1302 H -0.07371 0.78246 0.32436
 H1303 H -0.05083 0.76154 0.30296
 H1304 H -0.06689 0.79797 0.25015
 C1305 C 0.57853 0.69308 0.28102
 C1306 C 0.58346 0.69891 0.30123
 C1307 C 0.57420 0.71670 0.30933
 C1308 C 0.56101 0.72872 0.29728
 C1309 C 0.55684 0.72314 0.27698
 C1310 C 0.56543 0.70516 0.26899
 H1311 H 0.58520 0.67954 0.27416
 H1312 H 0.57743 0.72166 0.32481
 H1313 H 0.55456 0.74270 0.30356
 H1314 H 0.56238 0.70076 0.25327
 C1315 C 0.57319 0.21504 0.80852
 C1316 C 0.58283 0.19747 0.80042
 C1317 C 0.57877 0.19206 0.77989
 C1318 C 0.56607 0.20434 0.76761
 C1319 C 0.55705 0.22209 0.77567
 C1320 C 0.56043 0.22724 0.79623
 H1321 H 0.57574 0.21963 0.82424
 H1322 H 0.58584 0.17871 0.77304
 H1323 H 0.56361 0.20025 0.75171
 H1324 H 0.55361 0.24101 0.80258
 C1325 C 1.07957 0.69299 0.77859
 C1326 C 1.08291 0.69808 0.79929
 C1327 C 1.07241 0.71505 0.80758
 C1328 C 1.05936 0.72699 0.79530
 C1329 C 1.05665 0.72220 0.77455
 C1330 C 1.06665 0.70506 0.76629
 H1331 H 1.08744 0.68011 0.77164
 H1332 H 1.07444 0.71933 0.82347
 H1333 H 1.05185 0.74032 0.80183
 H1334 H 1.06479 0.70129 0.75022
 C1335 C 1.07816 0.19374 0.28078
 C1336 C 1.08262 0.19905 0.30122
 C1337 C 1.07302 0.21651 0.30966
 C1338 C 1.05993 0.22874 0.29770
 C1339 C 1.05626 0.22371 0.27716
 C1340 C 1.06519 0.20604 0.26886
 H1341 H 1.08509 0.18046 0.27368
 H1342 H 1.07588 0.22104 0.32534
 H1343 H 1.05320 0.24246 0.30424
 H1344 H 1.06248 0.20203 0.25296
 C1345 C 0.57110 0.28744 0.69179
 C1346 C 0.58323 0.30289 0.70070
 C1347 C 0.58152 0.30651 0.72189
 C1348 C 0.56865 0.29433 0.73404
 C1349 C 0.55698 0.27864 0.72514
 C1350 C 0.55798 0.27549 0.70391
 H1351 H 0.57193 0.28438 0.67550
 H1352 H 0.59069 0.31821 0.72926
 H1353 H 0.56808 0.29686 0.75044
 H1354 H 0.54918 0.26329 0.69686
 C1355 C 0.58071 0.80588 0.22094
 C1356 C 0.58369 0.80147 0.20002
 C1357 C 0.57256 0.78520 0.19121
 C1358 C 0.55926 0.77328 0.20320
 C1359 C 0.55701 0.77734 0.22417
 C1360 C 0.56761 0.79383 0.23291
 H1361 H 0.58897 0.81818 0.22835
 H1362 H 0.57433 0.78144 0.17515
 H1363 H 0.55129 0.76044 0.19630
 H1364 H 0.56606 0.79707 0.24913
 C1365 C 1.07207 0.28524 0.19055
 C1366 C 1.08314 0.30152 0.19944
 C1367 C 1.08018 0.30576 0.22039
 C1368 C 1.06719 0.29355 0.23230
 C1369 C 1.05666 0.27706 0.22349
 C1370 C 1.05887 0.27314 0.20248
 H1371 H 1.07383 0.28159 0.17446
 H1372 H 1.08839 0.31806 0.22786
 H1373 H 1.06565 0.29671 0.24854
 H1374 H 1.05094 0.26032 0.19552
 C1375 C 1.07075 0.78740 0.69082
 C1376 C 1.08245 0.80318 0.69976
 C1377 C 1.08029 0.80696 0.72090
 C1378 C 1.06740 0.79470 0.73294
 C1379 C 1.05622 0.77870 0.72401
 C1380 C 1.05767 0.77533 0.70285
 H1381 H 1.07192 0.78416 0.67458
 H1382 H 1.08908 0.81889 0.72836
 H1383 H 1.06642 0.79742 0.74930
 H1384 H 1.04920 0.76292 0.69579
 C1385 C 0.42817 0.71544 0.69025
 C1386 C 0.41720 0.69911 0.69924
 C1387 C 0.42007 0.69498 0.72023
 C1388 C 0.43291 0.70735 0.73210
 C1389 C 0.44334 0.72389 0.72319
 C1390 C 0.44122 0.72768 0.70214
 H1391 H 0.42646 0.71899 0.67413
 H1392 H 0.41192 0.68264 0.72776
 H1393 H 0.43441 0.70427 0.74837
 H1394 H 0.44909 0.74052 0.69510
 C1395 C 0.42801 0.21447 0.19095
 C1396 C 0.41706 0.19794 0.19958
 C1397 C 0.41990 0.19339 0.22049
 C1398 C 0.43271 0.20555 0.23263
 C1399 C 0.44317 0.22227 0.22405
 C1400 C 0.44104 0.22648 0.20309
 H1401 H 0.42633 0.21831 0.17488
 H1402 H 0.41171 0.18088 0.22770
 H1403 H 0.43420 0.20216 0.24884
 H1404 H 0.44893 0.23945 0.19629
 C1405 C -0.07592 0.71803 0.19138
 C1406 C -0.08405 0.69966 0.19931
 C1407 C -0.07772 0.69313 0.21895
 C1408 C -0.06439 0.70510 0.23070
 C1409 C -0.05702 0.72371 0.22299
 C1410 C -0.06255 0.72998 0.20318
 H1411 H -0.08035 0.72357 0.17637
 H1412 H -0.08335 0.67900 0.22556
 H1413 H -0.06030 0.70016 0.24605
 H1414 H -0.05702 0.74443 0.19713
 C1415 C -0.07965 0.19400 0.71849
 C1416 C -0.08401 0.19926 0.69798
 C1417 C -0.07477 0.21695 0.68964
 C1418 C -0.06200 0.22933 0.70169
 C1419 C -0.05831 0.22426 0.72223
 C1420 C -0.06701 0.20645 0.73050
 H1421 H -0.08633 0.18055 0.72552
 H1422 H -0.07758 0.22147 0.67393
 H1423 H -0.05546 0.24314 0.69516
 H1424 H -0.06428 0.20239 0.74640
 C1425 C 0.30643 0.42183 0.28112
 C1426 C 0.30085 0.41734 0.30150
 C1427 C 0.28327 0.42699 0.30982
 C1428 C 0.27120 0.44021 0.29780
 C1429 C 0.27650 0.44393 0.27732
 C1430 C 0.29429 0.43489 0.26913
 H1431 H 0.31979 0.41482 0.27409
 H1432 H 0.27852 0.42408 0.32545
 H1433 H 0.25738 0.44699 0.30427
 H1434 H 0.29851 0.43761 0.25328
 C1435 C 0.30733 -0.07816 0.78094
 C1436 C 0.30126 -0.08355 0.80104
 C1437 C 0.28316 -0.07448 0.80905
 C1438 C 0.27116 -0.06119 0.79708
 C1439 C 0.27698 -0.05670 0.77690
 C1440 C 0.29521 -0.06504 0.76900
 H1441 H 0.32106 -0.08447 0.77397
 H1442 H 0.27790 -0.07780 0.82443
 H1443 H 0.25702 -0.05490 0.80333
 H1444 H 0.29981 -0.06176 0.75336
 C1445 C 0.80894 0.42476 0.78368
 C1446 C 0.80078 0.41633 0.80192
 C1447 C 0.78066 0.42228 0.80786
 C1448 C 0.76884 0.43533 0.79552
 C1449 C 0.77688 0.44297 0.77715
 C1450 C 0.79707 0.43791 0.77144
 H1451 H 0.82430 0.42093 0.77844
 H1452 H 0.77366 0.41661 0.82179
 H1453 H 0.75321 0.43912 0.80009
 H1454 H 0.80341 0.44364 0.75717
 C1455 C 0.80743 -0.07628 0.28163
 C1456 C 0.80060 -0.08269 0.30118
 C1457 C 0.78184 -0.07454 0.30866
 C1458 C 0.76995 -0.06122 0.29665
 C1459 C 0.77656 -0.05567 0.27700
 C1460 C 0.79545 -0.06303 0.26966
 H1461 H 0.82173 -0.08182 0.27512
 H1462 H 0.77593 -0.07866 0.32361
 H1463 H 0.75528 -0.05571 0.30244
 H1464 H 0.80066 -0.05893 0.25440
 C1465 C 0.30681 0.57827 0.71942
 C1466 C 0.30126 0.58284 0.69903
 C1467 C 0.28361 0.57343 0.69069
 C1468 C 0.27143 0.56042 0.70269
 C1469 C 0.27670 0.55658 0.72316
 C1470 C 0.29456 0.56534 0.73139
 H1471 H 0.32023 0.58509 0.72646
 H1472 H 0.27889 0.57638 0.67505
 H1473 H 0.25756 0.55382 0.69620
 H1474 H 0.29874 0.56254 0.74725
 C1475 C 0.30746 1.07840 0.21933
 C1476 C 0.30150 1.08299 0.19907
 C1477 C 0.28368 1.07359 0.19107
 C1478 C 0.27178 1.06048 0.20327
 C1479 C 0.27748 1.05660 0.22363
 C1480 C 0.29548 1.06542 0.23151
 H1481 H 0.32100 1.08530 0.22610
 H1482 H 0.27869 1.07657 0.17552
 H1483 H 0.25780 1.05386 0.19704
 H1484 H 0.29998 1.06262 0.24727
 C1485 C 0.80777 0.57596 0.21835
 C1486 C 0.80069 0.58226 0.19891
 C1487 C 0.78198 0.57420 0.19147
 C1488 C 0.77013 0.56107 0.20363
 C1489 C 0.77689 0.55571 0.22331
 C1490 C 0.79590 0.56287 0.23046
 H1491 H 0.82207 0.58166 0.22466
 H1492 H 0.77612 0.57844 0.17651
 H1493 H 0.75541 0.55562 0.19799
 H1494 H 0.80122 0.55884 0.24571
 C1495 C 0.78541 1.07293 0.69263
 C1496 C 0.80218 1.08378 0.70092
 C1497 C 0.80738 1.08070 0.72166
 C1498 C 0.79557 1.06768 0.73401
 C1499 C 0.77864 1.05724 0.72573
 C1500 C 0.77380 1.05970 0.70493
 H1501 H 0.78107 1.07484 0.67671
 H1502 H 0.82010 1.08889 0.72858
 H1503 H 0.79936 1.06605 0.75011
 H1504 H 0.76060 1.05191 0.69840
 C1505 C 0.69554 0.57931 0.28120
 C1506 C 0.70003 0.58263 0.30204
 C1507 C 0.71667 0.57195 0.31101
 C1508 C 0.72892 0.55878 0.29922
 C1509 C 0.72477 0.55623 0.27831
 C1510 C 0.70789 0.56634 0.26944
 H1511 H 0.68295 0.58720 0.27368
 H1512 H 0.72052 0.57400 0.32701
 H1513 H 0.74205 0.55117 0.30620
 H1514 H 0.70455 0.56450 0.25326
 C1515 C 0.71816 1.07530 0.80939
 C1516 C 0.69883 1.08251 0.80240
 C1517 C 0.69166 1.07556 0.78316
 C1518 C 0.70384 1.06272 0.77098
 C1519 C 0.72333 1.05644 0.77778
 C1520 C 0.73031 1.06252 0.79713
 H1521 H 0.72437 1.07984 0.82407
 H1522 H 0.67689 1.08033 0.77708
 H1523 H 0.69832 1.05817 0.75599
 H1524 H 0.74540 1.05776 0.80253
 C1525 C 0.21402 0.57164 0.80887
 C1526 C 0.19776 0.58308 0.80019
 C1527 C 0.19333 0.58065 0.77921
 C1528 C 0.20542 0.56774 0.76704
 C1529 C 0.22188 0.55676 0.77568
 C1530 C 0.22592 0.55849 0.79671
 H1531 H 0.21774 0.57303 0.82499
 H1532 H 0.18103 0.58928 0.77198
 H1533 H 0.20220 0.56661 0.75077
 H1534 H 0.23872 0.55023 0.80355
 C1535 C 0.19513 1.07935 0.28100
 C1536 C 0.19966 1.08286 0.30181
 C1537 C 0.21644 1.07236 0.31076
 C1538 C 0.22880 1.05928 0.29898
 C1539 C 0.22463 1.05658 0.27808
 C1540 C 0.20759 1.06645 0.26925
 H1541 H 0.18240 1.08704 0.27349
 H1542 H 0.22031 1.07450 0.32675
 H1543 H 0.24202 1.05182 0.30596
 H1544 H 0.20420 1.06448 0.25309
 C1545 C 0.69481 0.41958 0.71990
 C1546 C 0.69876 0.41726 0.69883
 C1547 C 0.71485 0.42866 0.68988
 C1548 C 0.72707 0.44162 0.70188
 C1549 C 0.72355 0.44317 0.72303
 C1550 C 0.70721 0.43227 0.73191
 H1551 H 0.68263 0.41103 0.72734
 H1552 H 0.71818 0.42738 0.67366
 H1553 H 0.73972 0.44987 0.69483
 H1554 H 0.70432 0.43333 0.74824
 C1555 C 0.71707 -0.07268 0.19058
 C1556 C 0.69947 -0.08221 0.19891
 C1557 C 0.69368 -0.07745 0.21917
 C1558 C 0.70567 -0.06425 0.23103
 C1559 C 0.72350 -0.05536 0.22285
 C1560 C 0.72898 -0.05935 0.20247
 H1561 H 0.72198 -0.07580 0.17504
 H1562 H 0.68028 -0.08434 0.22621
 H1563 H 0.70134 -0.06137 0.24682
 H1564 H 0.74286 -0.05271 0.19603
 C1565 C 0.19364 0.42278 0.21858
 C1566 C 0.19972 0.41745 0.19856
 C1567 C 0.21779 0.42633 0.19045
 C1568 C 0.22984 0.43953 0.20236
 C1569 C 0.22401 0.44408 0.22252
 C1570 C 0.20574 0.43587 0.23046
 H1571 H 0.17987 0.41645 0.22544
 H1572 H 0.22296 0.42278 0.17509
 H1573 H 0.24403 0.44567 0.19610
 H1574 H 0.20112 0.43921 0.24608
 C1575 C 0.19453 -0.07860 0.71913
 C1576 C 0.19952 -0.08236 0.69846
 C1577 C 0.21659 -0.07219 0.68982
 C1578 C 0.22874 -0.05909 0.70176
 C1579 C 0.22408 -0.05608 0.72251
 C1580 C 0.20678 -0.06569 0.73104
 H1581 H 0.18159 -0.08611 0.72641
 H1582 H 0.22081 -0.07455 0.67395
 H1583 H 0.24213 -0.05182 0.69501
 H1584 H 0.20304 -0.06347 0.74709
 C1585 C 0.28150 0.30792 0.42551
 C1586 C 0.30123 0.30137 0.41920
 C1587 C 0.30873 0.28243 0.42656
 C1588 C 0.29650 0.27005 0.43915
 C1589 C 0.27663 0.27640 0.44470
 C1590 C 0.26929 0.29550 0.43807
 H1591 H 0.27515 0.32239 0.42039
 H1592 H 0.32385 0.27685 0.42229
 H1593 H 0.30232 0.25528 0.44416
 H1594 H 0.25393 0.30057 0.44227
 C1595 C 0.28271 0.80867 -0.07464
 C1596 C 0.30215 0.80179 -0.08149
 C1597 C 0.30930 0.78249 -0.07478
 C1598 C 0.29698 0.77008 -0.06232
 C1599 C 0.27740 0.77678 -0.05623
 C1600 C 0.27043 0.79622 -0.06218
 H1601 H 0.27666 0.82343 -0.07923
 H1602 H 0.32418 0.77664 -0.07947
 H1603 H 0.30252 0.75505 -0.05779
 H1604 H 0.25529 0.80156 -0.05754
 C1605 C 0.81060 0.28123 -0.07457
 C1606 C 0.80264 0.30013 -0.08155
 C1607 C 0.78282 0.30616 -0.07500
 C1608 C 0.77100 0.29333 -0.06254
 C1609 C 0.77879 0.27433 -0.05618
 C1610 C 0.79874 0.26844 -0.06200
 H1611 H 0.82574 0.27601 -0.07920
 H1612 H 0.77618 0.32064 -0.07972
 H1613 H 0.75558 0.29806 -0.05812
 H1614 H 0.80490 0.25373 -0.05723
 C1615 C 0.78045 0.80834 0.42376
 C1616 C 0.80064 0.80233 0.41837
 C1617 C 0.80868 0.78412 0.42687
 C1618 C 0.79659 0.77190 0.43975
 C1619 C 0.77630 0.77766 0.44441
 C1620 C 0.76836 0.79605 0.43658
 H1621 H 0.77364 0.82222 0.41767
 H1622 H 0.82416 0.77901 0.42331
 H1623 H 0.80286 0.75764 0.44563
 H1624 H 0.75265 0.80063 0.44003
 C1625 C 0.69140 0.28195 0.57534
 C1626 C 0.69821 0.30143 0.58171
 C1627 C 0.71725 0.30869 0.57425
 C1628 C 0.72948 0.29650 0.56148
 C1629 C 0.72287 0.27691 0.55581
 C1630 C 0.70367 0.26979 0.56255
 H1631 H 0.67686 0.27577 0.58059
 H1632 H 0.72307 0.32357 0.57859
 H1633 H 0.74435 0.30214 0.55643
 H1634 H 0.69844 0.25461 0.55834
 C1635 C 0.71816 0.80993 1.07362
 C1636 C 0.69935 0.80232 1.08133
 C1637 C 0.69289 0.78267 1.07515
 C1638 C 0.70532 0.77067 1.06240
 C1639 C 0.72431 0.77812 1.05543
 C1640 C 0.73054 0.79790 1.06082
 H1641 H 0.72366 0.82498 1.07779
 H1642 H 0.67853 0.77623 1.08055
 H1643 H 0.70036 0.75536 1.05835
 H1644 H 0.74525 0.80379 1.05559
 C1645 C 0.21826 0.30839 1.07503
 C1646 C 0.19834 0.30212 1.08096
 C1647 C 0.19065 0.28349 1.07322
 C1648 C 0.20287 0.27112 1.06059
 C1649 C 0.22291 0.27718 1.05543
 C1650 C 0.23045 0.29597 1.06247
 H1651 H 0.22478 0.32261 1.08047
 H1652 H 0.17539 0.27815 1.07721
 H1653 H 0.19690 0.25657 1.05528
 H1654 H 0.24596 0.30080 1.05857
 C1655 C 0.19102 0.78189 0.57521
 C1656 C 0.19826 0.80110 0.58189
 C1657 C 0.21754 0.80798 0.57465
 C1658 C 0.22956 0.79566 0.56180
 C1659 C 0.22250 0.77632 0.55581
 C1660 C 0.20308 0.76959 0.56235
 H1661 H 0.17629 0.77601 0.58025
 H1662 H 0.22368 0.82266 0.57924
 H1663 H 0.24461 0.80099 0.55694
 H1664 H 0.19750 0.75460 0.55791
 C1665 C 0.30877 0.71753 0.57422
 C1666 C 0.30168 0.69831 0.58113
 C1667 C 0.28227 0.69139 0.57433
 C1668 C 0.26995 0.70372 0.56172
 C1669 C 0.27685 0.72309 0.55555
 C1670 C 0.29642 0.72982 0.56159
 H1671 H 0.32362 0.72341 0.57889
 H1672 H 0.27626 0.67669 0.57908
 H1673 H 0.25482 0.69837 0.55714
 H1674 H 0.30189 0.74480 0.55695
 C1675 C 0.28268 0.19199 1.07383
 C1676 C 0.30172 0.19913 1.08137
 C1677 C 0.30863 0.21862 1.07509
 C1678 C 0.29645 0.23093 1.06233
 C1679 C 0.27725 0.22394 1.05549
 C1680 C 0.27054 0.20432 1.06105
 H1681 H 0.27683 0.17708 1.07810
 H1682 H 0.32318 0.22471 1.08039
 H1683 H 0.30176 0.24612 1.05818
 H1684 H 0.25566 0.19878 1.05590
 C1685 C 0.78165 0.69210 1.07505
 C1686 C 0.80100 0.69881 1.08223
 C1687 C 0.80866 0.71772 1.07520
 C1688 C 0.79682 0.73003 1.06211
 C1689 C 0.77724 0.72356 1.05573
 C1690 C 0.76986 0.70442 1.06197
 H1691 H 0.77535 0.67752 1.07984
 H1692 H 0.82343 0.72343 1.08038
 H1693 H 0.80264 0.74488 1.05743
 H1694 H 0.75472 0.69929 1.05718
 C1695 C 0.78349 0.19227 0.57350
 C1696 C 0.80227 0.19931 0.58170
 C1697 C 0.80916 0.21906 0.57629
 C1698 C 0.79717 0.23170 0.56362
 C1699 C 0.77825 0.22473 0.55601
 C1700 C 0.77158 0.20489 0.56079
 H1701 H 0.77777 0.17712 0.57709
 H1702 H 0.82346 0.22508 0.58232
 H1703 H 0.80241 0.24707 0.56014
 H1704 H 0.75691 0.19938 0.55507
 C1705 C 0.69257 0.71702 0.42603
 C1706 C 0.69944 0.69765 0.41937
 C1707 C 0.71875 0.69044 0.42632
 C1708 C 0.73119 0.70264 0.43884
 C1709 C 0.72452 0.72218 0.44469
 C1710 C 0.70506 0.72919 0.43849
 H1711 H 0.67779 0.72311 0.42127
 H1712 H 0.72459 0.67560 0.42177
 H1713 H 0.74624 0.69707 0.44353
 H1714 H 0.69973 0.74429 0.44296
 C1715 C 0.69208 0.21766 -0.07556
 C1716 C 0.69851 0.19786 -0.08139
 C1717 C 0.71728 0.19024 -0.07351
 C1718 C 0.72963 0.20239 -0.06086
 C1719 C 0.72345 0.22230 -0.05577
 C1720 C 0.70450 0.22980 -0.06293
 H1721 H 0.67775 0.22411 -0.08111
 H1722 H 0.72276 0.17508 -0.07739
 H1723 H 0.74430 0.19645 -0.05546
 H1724 H 0.69958 0.24521 -0.05912
 C1725 C 0.21834 0.69230 -0.07569
 C1726 C 0.19879 0.69909 -0.08236
 C1727 C 0.19138 0.71808 -0.07514
 C1728 C 0.20351 0.73026 -0.06228
 C1729 C 0.22319 0.72365 -0.05633
 C1730 C 0.23044 0.70452 -0.06286
 H1731 H 0.22464 0.67781 -0.08072
 H1732 H 0.17642 0.72387 -0.07972
 H1733 H 0.19777 0.74508 -0.05740
 H1734 H 0.24569 0.69928 -0.05842
 C1735 C 0.19057 0.21723 0.42629
 C1736 C 0.19802 0.19822 0.41917
 C1737 C 0.21767 0.19158 0.42569
 C1738 C 0.22984 0.20398 0.43824
 C1739 C 0.22256 0.22313 0.44463
 C1740 C 0.20278 0.22959 0.43886
 H1741 H 0.17553 0.22289 0.42184
 H1742 H 0.22397 0.17705 0.42076
 H1743 H 0.24515 0.19884 0.44261
 H1744 H 0.19701 0.24441 0.44370
 C1745 C 0.30689 0.42201 0.71976
 C1746 C 0.30104 0.41725 0.69951
 C1747 C 0.28335 0.42680 0.69126
 C1748 C 0.27144 0.44015 0.70319
 C1749 C 0.27702 0.44419 0.72353
 C1750 C 0.29491 0.43526 0.73167
 H1751 H 0.32034 0.41508 0.72674
 H1752 H 0.27838 0.42369 0.67575
 H1753 H 0.25752 0.44680 0.69678
 H1754 H 0.29930 0.43816 0.74743
 C1755 C 0.30886 0.92461 0.21841
 C1756 C 0.30149 0.91787 0.19923
 C1757 C 0.28234 0.92536 0.19220
 C1758 C 0.27051 0.93849 0.20439
 C1759 C 0.27766 0.94452 0.22371
 C1760 C 0.29700 0.93778 0.23054
 H1761 H 0.32353 0.91938 0.22437
 H1762 H 0.27613 0.92074 0.17754
 H1763 H 0.25550 0.94351 0.19900
 H1764 H 0.30261 0.94221 0.24555
 C1765 C 0.80854 0.42388 0.21877
 C1766 C 0.80113 0.41770 0.19942
 C1767 C 0.78235 0.42594 0.19229
 C1768 C 0.77075 0.43908 0.20465
 C1769 C 0.77782 0.44434 0.22423
 C1770 C 0.79692 0.43704 0.23109
 H1771 H 0.82292 0.41803 0.22485
 H1772 H 0.77623 0.42184 0.17743
 H1773 H 0.75595 0.44466 0.19922
 H1774 H 0.80247 0.44096 0.24626
 C1775 C 0.80619 0.92323 0.71831
 C1776 C 0.80003 0.91777 0.69837
 C1777 C 0.78204 0.92674 0.69012
 C1778 C 0.77006 0.94018 0.70186
 C1779 C 0.77590 0.94484 0.72199
 C1780 C 0.79414 0.93655 0.73004
 H1781 H 0.81982 0.91658 0.72525
 H1782 H 0.77694 0.92305 0.67476
 H1783 H 0.75587 0.94634 0.69554
 H1784 H 0.79869 0.93987 0.74568
 C1785 C 0.69526 0.58075 0.72137
 C1786 C 0.69829 0.58221 0.70004
 C1787 C 0.71317 0.56953 0.69076
 C1788 C 0.72518 0.55616 0.70266
 C1789 C 0.72266 0.55549 0.72401
 C1790 C 0.70744 0.56764 0.73323
 H1791 H 0.68406 0.59029 0.72913
 H1792 H 0.71579 0.57017 0.67438
 H1793 H 0.73700 0.54695 0.69534
 H1794 H 0.70533 0.56731 0.74972
 C1795 C 0.71837 0.07595 0.19105
 C1796 C 0.69941 0.08353 0.19845
 C1797 C 0.69263 0.07713 0.21797
 C1798 C 0.70479 0.06405 0.22998
 C1799 C 0.72386 0.05706 0.22268
 C1800 C 0.73050 0.06288 0.20310
 H1801 H 0.72416 0.08038 0.17614
 H1802 H 0.67815 0.08247 0.22424
 H1803 H 0.69957 0.05978 0.24518
 H1804 H 0.74531 0.05770 0.19736
 C1805 C 0.19294 0.57941 0.22033
 C1806 C 0.19808 0.58298 0.19964
 C1807 C 0.21504 0.57242 0.19119
 C1808 C 0.22693 0.55918 0.20332
 C1809 C 0.22212 0.55634 0.22407
 C1810 C 0.20495 0.56631 0.23245
 H1811 H 0.18007 0.58719 0.22747
 H1812 H 0.21937 0.57460 0.17532
 H1813 H 0.24030 0.55169 0.19670
 H1814 H 0.20115 0.56432 0.24852
 C1815 C 0.21299 0.07012 0.69197
 C1816 C 0.19792 0.08270 0.70108
 C1817 C 0.19483 0.08145 0.72240
 C1818 C 0.20705 0.06849 0.73443
 C1819 C 0.22230 0.05627 0.72534
 C1820 C 0.22500 0.05688 0.70401
 H1821 H 0.21566 0.07065 0.67559
 H1822 H 0.18350 0.09100 0.72997
 H1823 H 0.20488 0.06825 0.75091
 H1824 H 0.23688 0.04768 0.69680
 C1825 C 0.30684 0.57934 0.27930
 C1826 C 0.30186 0.58271 0.30005
 C1827 C 0.28508 0.57204 0.30861
 C1828 C 0.27319 0.55886 0.29655
 C1829 C 0.27783 0.55620 0.27574
 C1830 C 0.29484 0.56630 0.26724
 H1831 H 0.31960 0.58722 0.27209
 H1832 H 0.28091 0.57406 0.32455
 H1833 H 0.25995 0.55127 0.30327
 H1834 H 0.29849 0.56448 0.25113
 C1835 C 0.30913 0.07550 0.78187
 C1836 C 0.30202 0.08213 0.80119
 C1837 C 0.28307 0.07451 0.80849
 C1838 C 0.27115 0.06138 0.79643
 C1839 C 0.27803 0.05548 0.77697
 C1840 C 0.29719 0.06233 0.76986
 H1841 H 0.32364 0.08083 0.77570
 H1842 H 0.27705 0.07906 0.82326
 H1843 H 0.25628 0.05628 0.80203
 H1844 H 0.30259 0.05801 0.75475
 C1845 C 0.78353 0.57326 0.80824
 C1846 C 0.80155 0.58234 0.80029
 C1847 C 0.80782 0.57713 0.78027
 C1848 C 0.79602 0.56382 0.76831
 C1849 C 0.77784 0.55534 0.77615
 C1850 C 0.77177 0.55991 0.79624
 H1851 H 0.77823 0.57672 0.82357
 H1852 H 0.82153 0.58370 0.77350
 H1853 H 0.80074 0.56058 0.75271
 H1854 H 0.75760 0.55362 0.80241
 C1855 C 0.80706 0.08060 0.27887
 C1856 C 0.80272 0.08279 0.29990
 C1857 C 0.78662 0.07119 0.30853
 C1858 C 0.77477 0.05815 0.29627
 C1859 C 0.77871 0.05668 0.27519
 C1860 C 0.79504 0.06779 0.26661
 H1861 H 0.81924 0.08932 0.27164
 H1862 H 0.78297 0.07237 0.32468
 H1863 H 0.76206 0.04977 0.30306
 H1864 H 0.79818 0.06686 0.25031
 C1865 C 0.69389 0.42016 0.27887
 C1866 C 0.69798 0.41753 0.29992
 C1867 C 0.71403 0.42889 0.30892
 C1868 C 0.72606 0.44211 0.29702
 C1869 C 0.72233 0.44404 0.27594
 C1870 C 0.70607 0.43318 0.26697
 H1871 H 0.68176 0.41166 0.27134
 H1872 H 0.71755 0.42734 0.32508
 H1873 H 0.73877 0.45024 0.30407
 H1874 H 0.70314 0.43446 0.25066
 C1875 C 0.71627 0.92777 0.80903
 C1876 C 0.69912 0.91764 0.80051
 C1877 C 0.69383 0.92168 0.77996
 C1878 C 0.70583 0.93484 0.76802
 C1879 C 0.72318 0.94443 0.77643
 C1880 C 0.72818 0.94111 0.79708
 H1881 H 0.72073 0.92519 0.82481
 H1882 H 0.68082 0.91424 0.77279
 H1883 H 0.70185 0.93722 0.75204
 H1884 H 0.74167 0.94829 0.80371
 C1885 C 0.19361 0.42117 0.77930
 C1886 C 0.19812 0.41767 0.80014
 C1887 C 0.21466 0.42837 0.80913
 C1888 C 0.22683 0.44162 0.79736
 C1889 C 0.22269 0.44430 0.77644
 C1890 C 0.20587 0.43424 0.76755
 H1891 H 0.18106 0.41333 0.77174
 H1892 H 0.21852 0.42623 0.82514
 H1893 H 0.23990 0.44920 0.80436
 H1894 H 0.20256 0.43616 0.75137
 C1895 C 0.21187 0.93085 0.30847
 C1896 C 0.19752 0.91768 0.29915
 C1897 C 0.19496 0.91859 0.27773
 C1898 C 0.20709 0.93166 0.26584
 C1899 C 0.22176 0.94434 0.27513
 C1900 C 0.22381 0.94419 0.29654
 H1901 H 0.21413 0.93061 0.32492
 H1902 H 0.18420 0.90863 0.26995
 H1903 H 0.20538 0.93156 0.24931
 H1904 H 0.23524 0.95377 0.30392
 C1905 C 0.42108 0.30513 0.71952
 C1906 C 0.41746 0.30057 0.69875
 C1907 C 0.42793 0.28382 0.68989
 C1908 C 0.44116 0.27159 0.70173
 C1909 C 0.44402 0.27585 0.72257
 C1910 C 0.43413 0.29281 0.73132
 H1911 H 0.41338 0.31781 0.72697
 H1912 H 0.42566 0.27990 0.67394
 H1913 H 0.44861 0.25842 0.69482
 H1914 H 0.43620 0.29625 0.74744
 C1915 C 0.42271 0.80693 0.21884
 C1916 C 0.41754 0.80109 0.19870
 C1917 C 0.42639 0.78309 0.19063
 C1918 C 0.43944 0.77088 0.20265
 C1919 C 0.44387 0.77648 0.22288
 C1920 C 0.43568 0.79467 0.23083
 H1921 H 0.41637 0.82065 0.22566
 H1922 H 0.42298 0.77811 0.17519
 H1923 H 0.44558 0.75676 0.19639
 H1924 H 0.43893 0.79909 0.24650
 C1925 C 0.92309 0.30703 0.21779
 C1926 C 0.91647 0.30044 0.19830
 C1927 C 0.92440 0.28196 0.19044
 C1928 C 0.93782 0.26992 0.20220
 C1929 C 0.94361 0.27623 0.22189
 C1930 C 0.93647 0.29497 0.22949
 H1931 H 0.91761 0.32126 0.22431
 H1932 H 0.91971 0.27639 0.17555
 H1933 H 0.94318 0.25536 0.19623
 H1934 H 0.94075 0.29993 0.24476
 C1935 C 0.92442 0.78166 0.68936
 C1936 C 0.91677 0.80020 0.69745
 C1937 C 0.92324 0.80620 0.71716
 C1938 C 0.93629 0.79366 0.72875
 C1939 C 0.94332 0.77499 0.72083
 C1940 C 0.93756 0.76913 0.70100
 H1941 H 0.91987 0.77648 0.67428
 H1942 H 0.91798 0.82039 0.72392
 H1943 H 0.94055 0.79828 0.74413
 H1944 H 0.94275 0.75463 0.69478
 C1945 C 0.57156 0.28521 0.30871
 C1946 C 0.58276 0.30138 0.29977
 C1947 C 0.58000 0.30556 0.27875
 C1948 C 0.56700 0.29338 0.26683
 C1949 C 0.55630 0.27702 0.27573
 C1950 C 0.55837 0.27317 0.29678
 H1951 H 0.57317 0.28163 0.32484
 H1952 H 0.58836 0.31779 0.27126
 H1953 H 0.56561 0.29643 0.25054
 H1954 H 0.55034 0.26042 0.30380
 C1955 C 0.57758 0.80851 0.78005
 C1956 C 0.58244 0.80254 0.80026
 C1957 C 0.57330 0.78465 0.80824
 C1958 C 0.56028 0.77270 0.79608
 C1959 C 0.55611 0.77843 0.77579
 C1960 C 0.56461 0.79650 0.76790
 H1961 H 0.58418 0.82214 0.77330
 H1962 H 0.57646 0.77960 0.82374
 H1963 H 0.55391 0.75866 0.80230
 H1964 H 0.56159 0.80102 0.75218
 C1965 C 0.07743 0.30675 0.77913
 C1966 C 0.08142 0.30177 0.79979
 C1967 C 0.07097 0.28503 0.80860
 C1968 C 0.05754 0.27311 0.79682
 C1969 C 0.05434 0.27774 0.77607
 C1970 C 0.06412 0.29475 0.76736
 H1971 H 0.08507 0.31947 0.77171
 H1972 H 0.07346 0.28079 0.82446
 H1973 H 0.05020 0.25986 0.80367
 H1974 H 0.06188 0.29840 0.75129
 C1975 C 0.08058 0.80467 0.27903
 C1976 C 0.08210 0.80174 0.30037
 C1977 C 0.06978 0.78662 0.30970
 C1978 C 0.05671 0.77433 0.29783
 C1979 C 0.05599 0.77685 0.27648
 C1980 C 0.06778 0.79226 0.26723
 H1981 H 0.08981 0.81604 0.27121
 H1982 H 0.07047 0.78405 0.32609
 H1983 H 0.04775 0.76240 0.30518
 H1984 H 0.06735 0.79441 0.25075
 C1985 C 0.58151 0.69560 0.72165
 C1986 C 0.58261 0.69837 0.70026
 C1987 C 0.56988 0.71323 0.69098
 C1988 C 0.55676 0.72540 0.70293
 C1989 C 0.55641 0.72306 0.72431
 C1990 C 0.56866 0.70795 0.73355
 H1991 H 0.59113 0.68444 0.72939
 H1992 H 0.57027 0.71566 0.67456
 H1993 H 0.54746 0.73714 0.69561
 H1994 H 0.56855 0.70599 0.75006
 C1995 C 0.57880 0.19196 0.22029
 C1996 C 0.58315 0.19788 0.19997
 C1997 C 0.57333 0.21540 0.19192
 C1998 C 0.56002 0.22708 0.20411
 C1999 C 0.55632 0.22146 0.22451
 C2000 C 0.56560 0.20375 0.23249
 H2001 H 0.58613 0.17865 0.22706
 H2002 H 0.57612 0.22032 0.17632
 H2003 H 0.55309 0.24086 0.19783
 H2004 H 0.56302 0.19937 0.24832
 C2005 C 0.07356 0.71772 0.19041
 C2006 C 0.08232 0.69956 0.19834
 C2007 C 0.07701 0.69344 0.21838
 C2008 C 0.06399 0.70553 0.23041
 C2009 C 0.05587 0.72385 0.22262
 C2010 C 0.06045 0.72977 0.20248
 H2011 H 0.07708 0.72290 0.17505
 H2012 H 0.08326 0.67960 0.22510
 H2013 H 0.06062 0.70085 0.24601
 H2014 H 0.05435 0.74399 0.19634
 C2015 C 0.08007 0.19453 0.72223
 C2016 C 0.08182 0.19807 0.70101
 C2017 C 0.06943 0.21333 0.69192
 C2018 C 0.05595 0.22508 0.70390
 C2019 C 0.05485 0.22192 0.72515
 C2020 C 0.06685 0.20647 0.73421
 H2021 H 0.08946 0.18305 0.72979
 H2022 H 0.07033 0.21636 0.67562
 H2023 H 0.04694 0.23714 0.69673
 H2024 H 0.06628 0.20398 0.75063
 C2025 C 0.42859 0.71457 0.30923
 C2026 C 0.41736 0.69837 0.30043
 C2027 C 0.42008 0.69410 0.27945
 C2028 C 0.43304 0.70624 0.26741
 C2029 C 0.44375 0.72266 0.27615
 C2030 C 0.44176 0.72657 0.29718
 H2031 H 0.42703 0.71814 0.32535
 H2032 H 0.41173 0.68183 0.27207
 H2033 H 0.43440 0.70310 0.25116
 H2034 H 0.44985 0.73931 0.30409
 C2035 C 0.42701 0.21676 0.80942
 C2036 C 0.41780 0.19903 0.80119
 C2037 C 0.42275 0.19332 0.78097
 C2038 C 0.43580 0.20545 0.76903
 C2039 C 0.44435 0.22338 0.77711
 C2040 C 0.44018 0.22883 0.79745
 H2041 H 0.42375 0.22161 0.82493
 H2042 H 0.41612 0.17984 0.77401
 H2043 H 0.43885 0.20113 0.75328
 H2044 H 0.44659 0.24276 0.80381
 C2045 C 0.92810 0.71496 0.80839
 C2046 C 0.91755 0.69816 0.79986
 C2047 C 0.92085 0.69339 0.77907
 C2048 C 0.93373 0.70553 0.76698
 C2049 C 0.94374 0.72252 0.77543
 C2050 C 0.94117 0.72700 0.79627
 H2051 H 0.92607 0.71902 0.82434
 H2052 H 0.91306 0.68067 0.77187
 H2053 H 0.93558 0.70193 0.75086
 H2054 H 0.94871 0.74019 0.80296
 C2055 C 0.92866 0.21393 0.30786
 C2056 C 0.91676 0.19812 0.29924
 C2057 C 0.91873 0.19398 0.27816
 C2058 C 0.93170 0.20584 0.26586
 C2059 C 0.94322 0.22180 0.27444
 C2060 C 0.94189 0.22560 0.29556
 H2061 H 0.92761 0.21743 0.32404
 H2062 H 0.90973 0.18206 0.27095
 H2063 H 0.93248 0.20284 0.24954
 H2064 H 0.95054 0.23805 0.30235
 C2065 C 0.28098 0.30854 0.57551
 C2066 C 0.30062 0.30176 0.58196
 C2067 C 0.30787 0.28268 0.57486
 C2068 C 0.29550 0.27037 0.56241
 C2069 C 0.27573 0.27695 0.55671
 C2070 C 0.26863 0.29619 0.56305
 H2071 H 0.27484 0.32315 0.58041
 H2072 H 0.32290 0.27691 0.57924
 H2073 H 0.30114 0.25550 0.55758
 H2074 H 0.25336 0.30143 0.55871
 C2075 C 0.28127 0.80915 0.07524
 C2076 C 0.30111 0.80262 0.08132
 C2077 C 0.30864 0.78383 0.07373
 C2078 C 0.29636 0.77157 0.06113
 C2079 C 0.27640 0.77788 0.05579
 C2080 C 0.26901 0.79684 0.06265
 H2081 H 0.27489 0.82351 0.08056
 H2082 H 0.32383 0.77827 0.07782
 H2083 H 0.30222 0.75690 0.05594
 H2084 H 0.25358 0.80187 0.05864
 C2085 C 0.80921 0.28266 0.07490
 C2086 C 0.80095 0.30126 0.08217
 C2087 C 0.78123 0.30738 0.07534
 C2088 C 0.76971 0.29479 0.06236
 C2089 C 0.77775 0.27598 0.05585
 C2090 C 0.79765 0.27011 0.06190
 H2091 H 0.82426 0.27737 0.07980
 H2092 H 0.77444 0.32168 0.08032
 H2093 H 0.75430 0.29946 0.05784
 H2094 H 0.80397 0.25551 0.05706
 C2095 C 0.78199 0.80675 0.57608
 C2096 C 0.80177 0.80074 0.58274
 C2097 C 0.81016 0.78226 0.57531
 C2098 C 0.79861 0.76965 0.56231
 C2099 C 0.77860 0.77541 0.55649
 C2100 C 0.77049 0.79414 0.56316
 H2101 H 0.77516 0.82101 0.58113
 H2102 H 0.82529 0.77711 0.58013
 H2103 H 0.80499 0.75513 0.55733
 H2104 H 0.75502 0.79875 0.55876
 C2105 C 0.28109 0.69143 0.42396
 C2106 C 0.30087 0.69797 0.41782
 C2107 C 0.30829 0.71679 0.42535
 C2108 C 0.29597 0.72906 0.43797
 C2109 C 0.27608 0.72272 0.44340
 C2110 C 0.26879 0.70375 0.43657
 H2111 H 0.27478 0.67707 0.41866
 H2112 H 0.32342 0.72237 0.42120
 H2113 H 0.30175 0.74375 0.44311
 H2114 H 0.25340 0.69870 0.44063
 C2115 C 0.28100 0.19147 0.92407
 C2116 C 0.30083 0.19801 0.91810
 C2117 C 0.30819 0.21684 0.92566
 C2118 C 0.29575 0.22913 0.93813
 C2119 C 0.27580 0.22279 0.94336
 C2120 C 0.26858 0.20381 0.93652
 H2121 H 0.27475 0.17708 0.91877
 H2122 H 0.32337 0.22240 0.92167
 H2123 H 0.30148 0.24381 0.94332
 H2124 H 0.25317 0.19876 0.94048
 C2125 C 0.80935 0.71760 0.92478
 C2126 C 0.80205 0.69846 0.91793
 C2127 C 0.78260 0.69173 0.92482
 C2128 C 0.77044 0.70416 0.93742
 C2129 C 0.77756 0.72344 0.94353
 C2130 C 0.79717 0.72998 0.93743
 H2131 H 0.82424 0.72335 0.92004
 H2132 H 0.77643 0.67709 0.92013
 H2133 H 0.75527 0.69895 0.94205
 H2134 H 0.80281 0.74490 0.94202
 C2135 C 0.80822 0.21672 0.42571
 C2136 C 0.80076 0.19801 0.41796
 C2137 C 0.78098 0.19142 0.42406
 C2138 C 0.76871 0.20359 0.43684
 C2139 C 0.77605 0.22247 0.44388
 C2140 C 0.79595 0.22884 0.43850
 H2141 H 0.82336 0.22233 0.42160
 H2142 H 0.77463 0.17713 0.41859
 H2143 H 0.75331 0.19854 0.44084
 H2144 H 0.80175 0.24347 0.44378
 C2145 C 0.69211 0.28286 0.42468
 C2146 C 0.69885 0.30228 0.41803
 C2147 C 0.71801 0.30957 0.42519
 C2148 C 0.73042 0.29742 0.43792
 C2149 C 0.72387 0.27784 0.44377
 C2150 C 0.70457 0.27074 0.43734
 H2151 H 0.67746 0.27669 0.41976
 H2152 H 0.72374 0.32445 0.42064
 H2153 H 0.74536 0.30305 0.44275
 H2154 H 0.69935 0.25560 0.44177
 C2155 C 0.71748 0.80845 0.92508
 C2156 C 0.69819 0.80155 0.91794
 C2157 C 0.69118 0.78214 0.92441
 C2158 C 0.70349 0.76969 0.93693
 C2159 C 0.72293 0.77646 0.94333
 C2160 C 0.72974 0.79599 0.93760
 H2161 H 0.72343 0.82329 0.92069
 H2162 H 0.67643 0.77625 0.91946
 H2163 H 0.69806 0.75460 0.94128
 H2164 H 0.74477 0.80137 0.94246
 C2165 C 0.19120 0.28229 0.92383
 C2166 C 0.19776 0.30192 0.91765
 C2167 C 0.21671 0.30933 0.92522
 C2168 C 0.22909 0.29711 0.93791
 C2169 C 0.22273 0.27734 0.94331
 C2170 C 0.20363 0.27010 0.93646
 H2171 H 0.17673 0.27600 0.91855
 H2172 H 0.22229 0.32437 0.92104
 H2173 H 0.24387 0.30286 0.94308
 H2174 H 0.19856 0.25481 0.94054
 C2175 C 0.21800 0.80916 0.42447
 C2176 C 0.19861 0.80224 0.41758
 C2177 C 0.19149 0.78304 0.42451
 C2178 C 0.20376 0.77079 0.43725
 C2179 C 0.22329 0.77753 0.44342
 C2180 C 0.23024 0.79687 0.43723
 H2181 H 0.22404 0.82384 0.41968
 H2182 H 0.17667 0.77714 0.41978
 H2183 H 0.19824 0.75583 0.44190
 H2184 H 0.24535 0.80221 0.44186
 C2185 C 0.69211 0.71832 0.57617
 C2186 C 0.69905 0.69893 0.58287
 C2187 C 0.71818 0.69164 0.57561
 C2188 C 0.73034 0.70370 0.56267
 C2189 C 0.72360 0.72320 0.55664
 C2190 C 0.70432 0.73036 0.56321
 H2191 H 0.67750 0.72452 0.58126
 H2192 H 0.72410 0.67683 0.58023
 H2193 H 0.74528 0.69805 0.55777
 H2194 H 0.69899 0.74547 0.55872
 C2195 C 0.69351 0.21580 0.07403
 C2196 C 0.70043 0.19694 0.08203
 C2197 C 0.72014 0.18974 0.07635
 C2198 C 0.73286 0.20148 0.06360
 C2199 C 0.72605 0.22050 0.05623
 C2200 C 0.70624 0.22748 0.06128
 H2201 H 0.67839 0.22175 0.07780
 H2202 H 0.72606 0.17537 0.08220
 H2203 H 0.74820 0.19599 0.05989
 H2204 H 0.70083 0.24220 0.05572
 C2205 C 0.21833 0.69137 0.07455
 C2206 C 0.19894 0.69840 0.08143
 C2207 C 0.19194 0.71774 0.07471
 C2208 C 0.20430 0.73001 0.06217
 C2209 C 0.22380 0.72315 0.05597
 C2210 C 0.23065 0.70368 0.06197
 H2211 H 0.22428 0.67657 0.07918
 H2212 H 0.17713 0.72374 0.07945
 H2213 H 0.19885 0.74508 0.05765
 H2214 H 0.24575 0.69823 0.05730
 C2215 C 0.21770 0.19103 0.57621
 C2216 C 0.19832 0.19811 0.58307
 C2217 C 0.19116 0.21724 0.57592
 C2218 C 0.20339 0.22931 0.56303
 C2219 C 0.22292 0.22243 0.55691
 C2220 C 0.22990 0.20313 0.56330
 H2221 H 0.22378 0.17640 0.58116
 H2222 H 0.17633 0.22324 0.58061
 H2223 H 0.19785 0.24425 0.55823
 H2224 H 0.24502 0.19768 0.55872
   
