data_POSCAR
  _audit_creation_date              2014-09-24
  _audit_creation_method            'ToBaCCo'
  _symmetry_space_group_name_H-M    'P1'
  _symmetry_Int_Tables_number       1
  _symmetry_cell_setting            triclinic
  loop_
  _symmetry_equiv_pos_as_xyz
 x,y,z
_cell_length_a 50.2112
_cell_length_b 50.0624
_cell_length_c 52.8270
_cell_angle_alpha 90.163100
_cell_angle_beta 91.116200
_cell_angle_gamma 89.515900
loop_
  _atom_site_label
  _atom_site_type_symbol
  _atom_site_fract_x
  _atom_site_fract_y
  _atom_site_fract_z
C1 C 0.39505 -0.01024 0.24455
 C2 C 0.10613 0.00716 0.75375
 C3 C 0.60214 0.50283 0.24902
 C4 C 0.89460 0.49756 0.74895
 C5 C 0.24585 0.35612 1.00431
 C6 C 0.75081 0.14386 1.00176
 C7 C 0.24795 0.64729 0.49925
 C8 C 0.75252 0.85505 0.49712
 C9 C 0.00452 0.24863 0.36710
 C10 C -0.00438 0.74719 0.13137
 C11 C 0.50143 0.25187 0.62580
 C12 C 0.50087 0.74579 0.86906
 C13 C -0.25605 0.64625 1.00247
 C14 C -0.24994 0.35592 0.50123
 C15 C 0.25139 -0.14842 0.00066
 C16 C 0.24864 1.14660 0.50327
 C17 C 0.10106 0.49344 0.25018
 C18 C -0.10500 1.00067 0.25386
 C19 C 0.39996 0.50490 -0.25102
 C20 C 0.60444 0.00157 -0.24978
 C21 C 0.00341 0.25183 0.87732
 C22 C 0.49949 0.24823 0.12063
 C23 C -0.00283 0.75094 0.62460
 C24 C 0.49886 0.75130 0.37339
 Zr25 Zr 0.02707 -0.01792 1.04120
 O26 O 0.05466 -0.00391 1.06884
 O27 O 0.02183 -0.05728 1.05260
 O28 O 0.00986 -0.01675 1.07790
 O29 O 0.07498 -0.02841 0.99564
 O30 O -0.02972 0.00494 1.07074
 O31 O 0.06524 -0.03644 1.03696
 O32 O -0.00802 -0.07372 1.02350
 O33 O -0.01369 -0.02414 1.03406
 O34 O 0.02373 -0.03723 1.00608
 O35 O 0.00924 0.02028 1.04132
 O36 O 0.04565 0.00738 1.01501
 Zr37 Zr -0.01826 0.02026 0.97093
 Zr38 Zr -0.03098 0.01395 1.03223
 Zr39 Zr 0.04006 -0.01149 0.97986
 Zr40 Zr -0.01668 -0.04211 0.99844
 O41 O 0.07366 0.01033 0.96840
 O42 O -0.05336 -0.05468 1.01345
 O43 O -0.00019 -0.01803 0.97039
 O44 O -0.03624 -0.00505 0.99721
 O45 O -0.01489 0.03989 1.00592
 O46 O 0.02246 0.02631 0.97829
 C47 C 0.00729 -0.07592 1.04321
 C48 C 0.08085 -0.03774 1.01773
 C49 C -0.01238 -0.00637 1.08538
 O50 O -0.06641 -0.00643 1.04084
 O51 O -0.06342 0.03590 1.01765
 O52 O -0.05612 0.03967 0.97536
 C53 C -0.07006 0.04414 0.99539
 O54 O 0.05547 0.05022 1.04227
 Zr55 Zr 0.02572 0.04441 1.01365
 O56 O -0.01440 0.06027 0.96086
 O57 O -0.03654 0.04910 1.05396
 O58 O 0.01212 0.07512 1.03808
 O59 O 0.06067 0.05941 0.99704
 O60 O 0.01359 0.07707 0.99134
 C61 C -0.00178 0.07949 0.97172
 O62 O -0.04642 0.00660 0.94364
 O63 O 0.04789 -0.04783 0.96067
 O64 O -0.00172 0.01778 0.93400
 O65 O 0.03660 -0.00623 0.94074
 O66 O -0.00224 -0.07444 0.97642
 O67 O -0.04287 -0.04952 0.96715
 C68 C 0.01961 0.00581 0.92620
 H69 H 0.03306 -0.05471 1.00567
 H70 H -0.05534 -0.00763 0.99297
 H71 H 0.03084 0.03744 0.96524
 H72 H 0.01163 0.02908 1.05800
 H73 H -0.05450 -0.07427 1.01098
 H74 H -0.07637 0.00512 1.05270
 H75 H -0.05389 0.04747 1.06244
 H76 H 0.02221 0.09150 1.03424
 H77 H -0.01272 -0.09043 0.98075
 H78 H 0.06525 -0.04582 0.95229
 H79 H 0.08366 -0.00132 0.95666
 H80 H 0.06106 0.07892 1.00029
 H81 H -0.05065 -0.06753 0.96879
 H82 H -0.05064 0.02191 0.93232
 H83 H 0.05888 -0.01917 1.08021
 H84 H 0.06072 0.06924 1.04270
 Zr85 Zr 0.52394 0.48301 0.53366
 O86 O 0.55121 0.49631 0.56193
 O87 O 0.52052 0.44269 0.54273
 O88 O 0.50706 0.48234 0.57057
 O89 O 0.57202 0.47589 0.48768
 O90 O 0.46614 0.50141 0.56400
 O91 O 0.56253 0.46608 0.52872
 O92 O 0.49107 0.42675 0.51307
 O93 O 0.48340 0.47577 0.52646
 O94 O 0.52099 0.46539 0.49770
 O95 O 0.50511 0.52060 0.53548
 O96 O 0.54181 0.50994 0.50844
 Zr97 Zr 0.47732 0.52318 0.46542
 Zr98 Zr 0.46507 0.51343 0.52630
 Zr99 Zr 0.53658 0.49265 0.47247
 Zr100 Zr 0.48071 0.45957 0.49007
 O101 O 0.56908 0.51629 0.46143
 O102 O 0.44481 0.44513 0.50525
 O103 O 0.49639 0.48549 0.46314
 O104 O 0.46011 0.49608 0.49052
 O105 O 0.48042 0.54107 0.50119
 O106 O 0.51793 0.53004 0.47259
 C107 C 0.50696 0.42387 0.53228
 C108 C 0.57810 0.46582 0.50947
 C109 C 0.48398 0.49041 0.57829
 O110 O 0.42975 0.49222 0.53355
 O111 O 0.43231 0.53566 0.51289
 O112 O 0.43945 0.54199 0.47090
 C113 C 0.42553 0.54515 0.49111
 O114 O 0.55103 0.55118 0.53723
 Zr115 Zr 0.52093 0.54644 0.50877
 O116 O 0.48016 0.56373 0.45697
 O117 O 0.45908 0.54694 0.55014
 O118 O 0.50745 0.57557 0.53492
 O119 O 0.55493 0.56350 0.49219
 O120 O 0.50707 0.57996 0.48857
 C121 C 0.49166 0.58287 0.46905
 O122 O 0.44891 0.51027 0.43801
 O123 O 0.54591 0.45743 0.45204
 O124 O 0.49305 0.52203 0.42827
 O125 O 0.53190 0.49833 0.43333
 O126 O 0.49561 0.42908 0.46610
 O127 O 0.45415 0.45295 0.45890
 C128 C 0.51406 0.51026 0.41964
 H129 H 0.53088 0.44827 0.49640
 H130 H 0.44105 0.49327 0.48621
 H131 H 0.52573 0.54198 0.45984
 H132 H 0.50729 0.52859 0.55255
 H133 H 0.44422 0.42565 0.50196
 H134 H 0.41968 0.50283 0.54609
 H135 H 0.44180 0.54442 0.55854
 H136 H 0.51733 0.59226 0.53179
 H137 H 0.48566 0.41253 0.46964
 H138 H 0.56305 0.46055 0.44358
 H139 H 0.57934 0.50544 0.44924
 H140 H 0.55478 0.58279 0.49643
 H141 H 0.44667 0.43476 0.46003
 H142 H 0.44427 0.52597 0.42733
 H143 H 0.55593 0.48059 0.57257
 H144 H 0.55636 0.57016 0.53819
 Zr145 Zr 0.47945 1.02459 0.52983
 O146 O 0.45315 1.01257 0.55841
 O147 O 0.48294 1.06533 0.53732
 O148 O 0.49716 1.02721 0.56674
 O149 O 0.43059 1.03010 0.48279
 O150 O 0.53858 1.00900 0.56164
 O151 O 0.44034 1.04064 0.52392
 O152 O 0.51177 1.08013 0.50771
 O153 O 0.51977 1.03183 0.52282
 O154 O 0.48134 1.04059 0.49336
 O155 O 0.49887 0.98736 0.53343
 O156 O 0.46115 0.99624 0.50563
 Zr157 Zr 0.52434 0.98167 0.46365
 Zr158 Zr 0.53863 0.99444 0.52440
 Zr159 Zr 0.46527 1.01195 0.46918
 Zr160 Zr 0.52135 1.04633 0.48589
 O161 O 0.43216 0.98786 0.45952
 O162 O 0.55773 1.06160 0.50068
 O163 O 0.50500 1.01908 0.45976
 O164 O 0.54220 1.01003 0.48793
 O165 O 0.52273 0.96546 0.50011
 O166 O 0.48412 0.97478 0.47093
 C167 C 0.49634 1.08373 0.52660
 C168 C 0.42466 1.04074 0.50414
 C169 C 0.52063 1.02034 0.57506
 O170 O 0.57408 1.01616 0.53100
 O171 O 0.57121 0.97182 0.51178
 O172 O 0.56241 0.96353 0.47001
 C173 C 0.57721 0.96150 0.49026
 O174 O 0.45382 0.95624 0.53642
 Zr175 Zr 0.48254 0.96005 0.50765
 O176 O 0.52132 0.94080 0.45655
 O177 O 0.54569 0.96239 0.54978
 O178 O 0.49796 0.93230 0.53455
 O179 O 0.44779 0.94201 0.49212
 O180 O 0.49514 0.92576 0.48818
 C181 C 0.50979 0.92215 0.46876
 O182 O 0.55175 0.99353 0.43598
 O183 O 0.45558 1.04581 0.44675
 O184 O 0.50740 0.98070 0.42626
 O185 O 0.46818 1.00343 0.43066
 O186 O 0.50551 1.07577 0.46089
 O187 O 0.54670 1.05147 0.45455
 C188 C 0.48561 0.99134 0.41726
 H189 H 0.47134 1.05759 0.49132
 H190 H 0.56108 1.01279 0.48363
 H191 H 0.47585 0.96222 0.45864
 H192 H 0.49731 0.98023 0.55079
 H193 H 0.55819 1.08088 0.49655
 H194 H 0.58454 1.00633 0.54413
 H195 H 0.56327 0.96553 0.55805
 H196 H 0.48825 0.91530 0.53206
 H197 H 0.51569 1.09241 0.46382
 H198 H 0.43821 1.04226 0.43820
 H199 H 0.42159 0.99778 0.44654
 H200 H 0.44815 0.92298 0.49725
 H201 H 0.55426 1.06968 0.45505
 H202 H 0.55618 0.97739 0.42591
 H203 H 0.44852 1.02879 0.56829
 H204 H 0.44937 0.93716 0.53857
 Zr205 Zr -0.02977 0.52012 1.03436
 O206 O -0.05622 0.50850 1.06295
 O207 O -0.02748 0.56120 1.04043
 O208 O -0.01260 0.52438 1.07145
 O209 O -0.07850 0.52209 0.98689
 O210 O 0.02964 0.50816 1.06684
 O211 O -0.06907 0.53509 1.02747
 O212 O 0.00105 0.57564 1.01036
 O213 O 0.01011 0.52893 1.02688
 O214 O -0.02859 0.53426 0.99713
 O215 O -0.00862 0.48405 1.03961
 O216 O -0.04675 0.48969 1.01158
 Zr217 Zr 0.01716 0.47606 0.97031
 Zr218 Zr 0.03071 0.49265 1.03018
 Zr219 Zr -0.04342 0.50361 0.97438
 Zr220 Zr 0.01101 0.54150 0.98924
 O221 O -0.07604 0.47801 0.96723
 O222 O 0.04714 0.55900 1.00214
 O223 O -0.00408 0.51217 0.96452
 O224 O 0.03362 0.50648 0.99304
 O225 O 0.01630 0.46166 1.00744
 O226 O -0.02267 0.46755 0.97793
 C227 C -0.01420 0.57942 1.02932
 C228 C -0.08459 0.53399 1.00763
 C229 C 0.01109 0.51865 1.08003
 O230 O 0.06441 0.51714 1.03622
 O231 O 0.06493 0.47226 1.01858
 O232 O 0.05591 0.45994 0.97774
 C233 C 0.07116 0.46071 0.99776
 O234 O -0.05228 0.45114 1.04410
 Zr235 Zr -0.02359 0.45466 1.01526
 O236 O 0.01614 0.43477 0.96517
 O237 O 0.03977 0.46183 1.05639
 O238 O -0.00716 0.42918 1.04364
 O239 O -0.05717 0.43396 1.00048
 O240 O -0.00891 0.41998 0.99774
 C241 C 0.00592 0.41617 0.97848
 O242 O 0.04429 0.48736 0.94217
 O243 O -0.05374 0.53522 0.94940
 O244 O 0.00065 0.47304 0.93296
 O245 O -0.04106 0.49105 0.93668
 O246 O -0.00654 0.56953 0.96377
 O247 O 0.03509 0.54582 0.95689
 C248 C -0.02247 0.48003 0.92385
 H249 H -0.03907 0.55086 0.99436
 H250 H 0.05231 0.50997 0.98852
 H251 H -0.03025 0.45384 0.96639
 H252 H -0.00988 0.47758 1.05723
 H253 H 0.04671 0.57801 0.99696
 H254 H 0.07548 0.50859 1.04972
 H255 H 0.05697 0.46643 1.06477
 H256 H -0.01611 0.41167 1.04202
 H257 H 0.00324 0.58654 0.96586
 H258 H -0.07101 0.53055 0.94119
 H259 H -0.08709 0.48652 0.95370
 H260 H -0.05581 0.41528 1.00656
 H261 H 0.04194 0.56429 0.95623
 H262 H 0.04939 0.47086 0.93294
 H263 H -0.06129 0.52492 1.07232
 H264 H -0.05606 0.43203 1.04703
 Zr265 Zr -0.02089 0.47686 0.46835
 O266 O -0.04859 0.48949 0.44006
 O267 O -0.01571 0.43670 0.45924
 O268 O -0.00397 0.47547 0.43156
 O269 O -0.06764 0.46838 0.51499
 O270 O 0.03640 0.49540 0.43762
 O271 O -0.05923 0.45956 0.47353
 O272 O 0.01596 0.42198 0.48758
 O273 O 0.01999 0.47057 0.47544
 O274 O -0.01691 0.45947 0.50425
 O275 O -0.00308 0.51466 0.46608
 O276 O -0.03943 0.50373 0.49351
 Zr277 Zr 0.02470 0.51869 0.53607
 Zr278 Zr 0.03731 0.50837 0.47521
 Zr279 Zr -0.03318 0.48679 0.52945
 Zr280 Zr 0.02360 0.45463 0.51176
 O281 O -0.06681 0.50961 0.54015
 O282 O 0.06066 0.44117 0.49769
 O283 O 0.00721 0.48057 0.53868
 O284 O 0.04280 0.49154 0.51112
 O285 O 0.02105 0.53612 0.50018
 O286 O -0.01610 0.52459 0.52892
 C287 C -0.00003 0.41871 0.46852
 C288 C -0.07411 0.45839 0.49329
 C289 C 0.01895 0.48339 0.42375
 O290 O 0.07298 0.48728 0.46748
 O291 O 0.07040 0.52983 0.48879
 O292 O 0.06172 0.53814 0.53032
 C293 C 0.07643 0.53989 0.51055
 O294 O -0.04979 0.54433 0.46400
 Zr295 Zr -0.01970 0.54054 0.49266
 O296 O 0.02024 0.55927 0.54440
 O297 O 0.04223 0.54196 0.45159
 O298 O -0.00695 0.56961 0.46649
 O299 O -0.05444 0.55721 0.50884
 O300 O -0.00755 0.57452 0.51293
 C301 C 0.00770 0.57799 0.53245
 O302 O 0.05367 0.50678 0.56351
 O303 O -0.04060 0.45173 0.55045
 O304 O 0.00913 0.51790 0.57332
 O305 O -0.02883 0.49344 0.56841
 O306 O 0.00935 0.42340 0.53478
 O307 O 0.04954 0.44879 0.54357
 C308 C -0.01149 0.50592 0.58202
 H309 H -0.02603 0.44208 0.50545
 H310 H 0.06191 0.48902 0.51550
 H311 H -0.02441 0.53649 0.54157
 H312 H -0.00554 0.52233 0.44894
 H313 H 0.06213 0.42176 0.50115
 H314 H 0.08267 0.49780 0.45479
 H315 H 0.05949 0.53950 0.44307
 H316 H -0.01742 0.58615 0.46946
 H317 H 0.02003 0.40718 0.53104
 H318 H -0.05770 0.45452 0.55919
 H319 H -0.07642 0.49882 0.55269
 H320 H -0.05509 0.57639 0.50426
 H321 H 0.05742 0.43060 0.54288
 H322 H 0.05777 0.52273 0.57403
 H323 H -0.05285 0.47360 0.42952
 H324 H -0.05554 0.56325 0.46265
 Zr325 Zr 0.47816 -0.02450 -0.03464
 O326 O 0.44879 -0.01183 -0.06137
 O327 O 0.48334 -0.06445 -0.04486
 O328 O 0.49311 -0.02383 -0.07224
 O329 O 0.43427 -0.03611 0.01393
 O330 O 0.53174 -0.00023 -0.06815
 O331 O 0.44053 -0.04277 -0.02826
 O332 O 0.51587 -0.07952 -0.01762
 O333 O 0.51953 -0.02966 -0.02999
 O334 O 0.48457 -0.04291 0.00051
 O335 O 0.49442 0.01406 -0.03627
 O336 O 0.46024 0.00082 -0.00765
 Zr337 Zr 0.52612 0.01608 0.03244
 Zr338 Zr 0.53543 0.00893 -0.02958
 Zr339 Zr 0.46890 -0.01717 0.02738
 Zr340 Zr 0.52553 -0.04678 0.00570
 O341 O 0.43522 0.00424 0.04021
 O342 O 0.56118 -0.05892 -0.01205
 O343 O 0.50987 -0.02260 0.03444
 O344 O 0.54350 -0.00927 0.00538
 O345 O 0.51984 0.03484 -0.00261
 O346 O 0.48488 0.02113 0.02747
 C347 C 0.49877 -0.08278 -0.03578
 C348 C 0.42681 -0.04519 -0.00785
 C349 C 0.51402 -0.01264 -0.08136
 O350 O 0.57082 -0.01091 -0.04034
 O351 O 0.56809 0.03163 -0.01666
 O352 O 0.56300 0.03552 0.02601
 C353 C 0.57577 0.03990 0.00539
 O354 O 0.44648 0.04210 -0.03447
 Zr355 Zr 0.47868 0.03830 -0.00798
 O356 O 0.52186 0.05650 0.04173
 O357 O 0.53829 0.04403 -0.05158
 O358 O 0.48850 0.06862 -0.03410
 O359 O 0.44492 0.05352 0.01099
 O360 O 0.49182 0.07193 0.01222
 C361 C 0.50848 0.07528 0.03070
 O362 O 0.55617 0.00354 0.05854
 O363 O 0.46372 -0.05315 0.04765
 O364 O 0.51200 0.01405 0.07028
 O365 O 0.47472 -0.01158 0.06627
 O366 O 0.51435 -0.07866 0.02952
 O367 O 0.55450 -0.05279 0.03506
 C368 C 0.49205 0.00131 0.07949
 H369 H 0.47590 -0.06051 0.00186
 H370 H 0.56290 -0.01142 0.00855
 H371 H 0.47704 0.03242 0.04088
 H372 H 0.49053 0.02247 -0.05288
 H373 H 0.56334 -0.07841 -0.00933
 H374 H 0.57953 0.00075 -0.05279
 H375 H 0.55512 0.04268 -0.06103
 H376 H 0.47774 0.08468 -0.02999
 H377 H 0.52524 -0.09450 0.02496
 H378 H 0.44695 -0.05131 0.05712
 H379 H 0.42644 -0.00733 0.05269
 H380 H 0.44365 0.07287 0.00722
 H381 H 0.56309 -0.07050 0.03292
 H382 H 0.56049 0.01914 0.06945
 H383 H 0.44441 -0.02753 -0.07213
 H384 H 0.43996 0.06082 -0.03471
 Zr385 Zr 0.52281 0.51858 -0.03003
 O386 O 0.55205 0.50442 -0.05523
 O387 O 0.52012 0.55885 -0.03974
 O388 O 0.50895 0.51977 -0.06829
 O389 O 0.56719 0.52586 0.02057
 O390 O 0.46861 0.49903 -0.06720
 O391 O 0.56076 0.53500 -0.02141
 O392 O 0.48826 0.57547 -0.01372
 O393 O 0.48184 0.52639 -0.02742
 O394 O 0.51716 0.53663 0.00523
 O395 O 0.50427 0.48125 -0.03375
 O396 O 0.53891 0.49162 -0.00300
 Zr397 Zr 0.47167 0.47984 0.03314
 Zr398 Zr 0.46357 0.48895 -0.02910
 Zr399 Zr 0.53100 0.50936 0.03209
 Zr400 Zr 0.47645 0.54301 0.00843
 O401 O 0.56269 0.48538 0.04648
 O402 O 0.44170 0.55782 -0.01036
 O403 O 0.49030 0.51726 0.03715
 O404 O 0.45619 0.50677 0.00600
 O405 O 0.47719 0.46151 -0.00207
 O406 O 0.51258 0.47220 0.03026
 C407 C 0.50561 0.57792 -0.03113
 C408 C 0.57477 0.53558 -0.00062
 C409 C 0.48752 0.51055 -0.07890
 O410 O 0.42973 0.51139 -0.04098
 O411 O 0.42925 0.46829 -0.01837
 O412 O 0.43433 0.46225 0.02422
 C413 C 0.42125 0.45955 0.00306
 O414 O 0.55043 0.45027 -0.03036
 Zr415 Zr 0.51811 0.45546 -0.00537
 O416 O 0.47344 0.43916 0.04198
 O417 O 0.45862 0.45476 -0.05233
 O418 O 0.50689 0.42645 -0.03283
 O419 O 0.55046 0.43754 0.01486
 O420 O 0.50240 0.42236 0.01316
 C421 C 0.48557 0.41976 0.03098
 O422 O 0.44158 0.49389 0.05749
 O423 O 0.53875 0.54451 0.05329
 O424 O 0.48462 0.48080 0.07177
 O425 O 0.52366 0.50386 0.07055
 O426 O 0.48925 0.57375 0.03344
 O427 O 0.44778 0.54984 0.03688
 C428 C 0.50499 0.49221 0.08241
 H429 H 0.52682 0.55366 0.00741
 H430 H 0.43691 0.51002 0.00834
 H431 H 0.51937 0.46019 0.04382
 H432 H 0.50793 0.47304 -0.05041
 H433 H 0.44070 0.57729 -0.00705
 H434 H 0.42052 0.50069 -0.05426
 H435 H 0.44213 0.45763 -0.06262
 H436 H 0.51655 0.40965 -0.02862
 H437 H 0.47922 0.59022 0.02882
 H438 H 0.55516 0.54115 0.06358
 H439 H 0.57199 0.49615 0.05964
 H440 H 0.55059 0.41828 0.01047
 H441 H 0.44014 0.56803 0.03491
 H442 H 0.43597 0.47850 0.06785
 H443 H 0.55762 0.51989 -0.06550
 H444 H 0.55581 0.43120 -0.03080
 Zr445 Zr 0.02553 1.01924 0.47130
 O446 O 0.05426 1.00434 0.44598
 O447 O 0.02137 1.05858 0.45933
 O448 O 0.01055 1.01916 0.43336
 O449 O 0.07109 1.02819 0.52074
 O450 O -0.02965 0.99841 0.43631
 O451 O 0.06359 1.03635 0.47870
 O452 O -0.01008 1.07612 0.48535
 O453 O -0.01537 1.02696 0.47483
 O454 O 0.02074 1.03867 0.50605
 O455 O 0.00695 0.98180 0.46916
 O456 O 0.04238 0.99331 0.49879
 Zr457 Zr -0.02376 0.98237 0.53689
 Zr458 Zr -0.03361 0.98959 0.47474
 Zr459 Zr 0.03522 1.01224 0.53350
 Zr460 Zr -0.01987 1.04496 0.51017
 O461 O 0.06748 0.98903 0.54792
 O462 O -0.05583 1.05881 0.49282
 O463 O -0.00532 1.02009 0.53935
 O464 O -0.04006 1.00856 0.50947
 O465 O -0.01911 0.96302 0.50207
 O466 O 0.01706 0.97489 0.53318
 C467 C 0.00611 1.07754 0.46682
 C468 C 0.07817 1.03732 0.49917
 C469 C -0.01124 1.00961 0.42371
 O470 O -0.06763 1.01167 0.46266
 O471 O -0.06798 0.97009 0.48696
 O472 O -0.06107 0.96393 0.52938
 C473 C -0.07504 0.96141 0.50871
 O474 O 0.05359 0.95147 0.47247
 Zr475 Zr 0.02174 0.95704 0.49793
 O476 O -0.02178 0.94190 0.54657
 O477 O -0.03911 0.95436 0.45309
 O478 O 0.01052 0.92708 0.47141
 O479 O 0.05443 0.93976 0.51818
 O480 O 0.00628 0.92442 0.51733
 C481 C -0.01019 0.92223 0.53548
 O482 O -0.05311 0.99692 0.56176
 O483 O 0.04305 1.04822 0.55336
 O484 O -0.00953 0.98393 0.57506
 O485 O 0.02896 1.00769 0.57229
 O486 O -0.00578 1.07703 0.53293
 O487 O -0.04696 1.05302 0.53971
 C488 C 0.01095 0.99584 0.58491
 H489 H 0.03027 1.05587 0.50714
 H490 H -0.05925 1.01185 0.51228
 H491 H 0.02428 0.96329 0.54687
 H492 H 0.01014 0.97305 0.45265
 H493 H -0.05677 1.07841 0.49541
 H494 H -0.07719 1.00050 0.44997
 H495 H -0.05573 0.95689 0.44292
 H496 H 0.02052 0.91055 0.47590
 H497 H -0.01590 1.09327 0.52776
 H498 H 0.05966 1.04535 0.56347
 H499 H 0.07698 1.00029 0.56057
 H500 H 0.05444 0.92036 0.51436
 H501 H -0.05429 1.07134 0.53775
 H502 H -0.05834 0.98173 0.57255
 H503 H 0.05943 1.01947 0.43508
 H504 H 0.05949 0.93254 0.47277
 Zr505 Zr 0.72856 0.27530 0.21630
 O506 O 0.74202 0.30057 0.18725
 O507 O 0.68770 0.27421 0.20845
 O508 O 0.72460 0.25693 0.17983
 O509 O 0.72590 0.32502 0.26208
 O510 O 0.73960 0.21434 0.18676
 O511 O 0.71438 0.31538 0.22111
 O512 O 0.67150 0.24725 0.23919
 O513 O 0.71868 0.23564 0.22469
 O514 O 0.71311 0.27513 0.25283
 O515 O 0.76427 0.25319 0.21364
 O516 O 0.75850 0.29202 0.24001
 Zr517 Zr 0.76883 0.22870 0.28434
 Zr518 Zr 0.75455 0.21414 0.22398
 Zr519 Zr 0.74308 0.28980 0.27654
 Zr520 Zr 0.70465 0.23578 0.26162
 O521 O 0.76911 0.32207 0.28377
 O522 O 0.68679 0.20016 0.24802
 O523 O 0.73314 0.25088 0.28740
 O524 O 0.73921 0.21225 0.26046
 O525 O 0.78468 0.22845 0.24795
 O526 O 0.77865 0.26819 0.27567
 C527 C 0.66867 0.26228 0.21960
 C528 C 0.71494 0.33113 0.24065
 C529 C 0.72967 0.23273 0.17245
 O530 O 0.73048 0.18000 0.21873
 O531 O 0.77571 0.18064 0.23761
 O532 O 0.78509 0.18968 0.27913
 C533 C 0.78633 0.17460 0.25923
 O534 O 0.79883 0.29606 0.20963
 Zr535 Zr 0.79304 0.26793 0.23904
 O536 O 0.80962 0.22893 0.29194
 O537 O 0.78540 0.20438 0.19872
 O538 O 0.81893 0.25003 0.21252
 O539 O 0.81413 0.30125 0.25377
 O540 O 0.82641 0.25232 0.25898
 C541 C 0.82899 0.23805 0.27913
 O542 O 0.75519 0.20235 0.31244
 O543 O 0.71091 0.30150 0.29956
 O544 O 0.77108 0.24621 0.32124
 O545 O 0.75388 0.28804 0.31485
 O546 O 0.67641 0.25397 0.28570
 O547 O 0.69830 0.21170 0.29399
 C548 C 0.76422 0.26979 0.32905
 H549 H 0.69678 0.28614 0.25457
 H550 H 0.73530 0.19363 0.26537
 H551 H 0.79202 0.27578 0.28763
 H552 H 0.77128 0.25391 0.19627
 H553 H 0.66759 0.20117 0.25197
 H554 H 0.73945 0.16850 0.20614
 H555 H 0.78099 0.18680 0.19111
 H556 H 0.83671 0.25820 0.21495
 H557 H 0.65926 0.24459 0.28307
 H558 H 0.71567 0.31888 0.30740
 H559 H 0.76048 0.33357 0.29658
 H560 H 0.83299 0.29906 0.24890
 H561 H 0.67985 0.20486 0.29342
 H562 H 0.77096 0.19704 0.32291
 H563 H 0.72611 0.30588 0.17696
 H564 H 0.81815 0.29887 0.20745
 Zr565 Zr 0.77091 0.72745 0.71451
 O566 O 0.75877 0.70126 0.68503
 O567 O 0.81133 0.73167 0.70737
 O568 O 0.77207 0.74582 0.67806
 O569 O 0.77829 0.67807 0.75992
 O570 O 0.75120 0.78589 0.68443
 O571 O 0.78776 0.68838 0.71910
 O572 O 0.82629 0.75994 0.73835
 O573 O 0.77766 0.76790 0.72299
 O574 O 0.78747 0.72902 0.75117
 O575 O 0.73335 0.74630 0.71177
 O576 O 0.74338 0.70831 0.73803
 Zr577 Zr 0.72885 0.77086 0.78244
 Zr578 Zr 0.73998 0.78610 0.72223
 Zr579 Zr 0.75964 0.71214 0.77468
 Zr580 Zr 0.79281 0.76906 0.76010
 O581 O 0.73662 0.67798 0.78234
 O582 O 0.80737 0.80582 0.74637
 O583 O 0.76647 0.75187 0.78567
 O584 O 0.75633 0.78947 0.75879
 O585 O 0.71189 0.76944 0.74590
 O586 O 0.72232 0.73056 0.77359
 C587 C 0.82975 0.74482 0.71896
 C588 C 0.78856 0.67248 0.73842
 C589 C 0.76244 0.76848 0.67020
 O590 O 0.76184 0.82130 0.71586
 O591 O 0.71810 0.81865 0.73608
 O592 O 0.71037 0.80914 0.77742
 C593 C 0.70805 0.82431 0.75765
 O594 O 0.70284 0.70058 0.70723
 Zr595 Zr 0.70692 0.72919 0.73684
 O596 O 0.68817 0.76742 0.78900
 O597 O 0.70653 0.79379 0.69825
 O598 O 0.67854 0.74441 0.71019
 O599 O 0.68973 0.69400 0.75140
 O600 O 0.67297 0.74146 0.75634
 C601 C 0.66951 0.75598 0.77611
 O602 O 0.74096 0.79782 0.81129
 O603 O 0.79371 0.70315 0.79745
 O604 O 0.72870 0.75294 0.81913
 O605 O 0.75041 0.71329 0.81293
 O606 O 0.82273 0.75330 0.78487
 O607 O 0.79831 0.79435 0.79214
 C608 C 0.73821 0.73020 0.82693
 H609 H 0.80458 0.71920 0.75302
 H610 H 0.75901 0.80838 0.76367
 H611 H 0.71003 0.72188 0.78540
 H612 H 0.72562 0.74475 0.69445
 H613 H 0.82668 0.80645 0.75054
 H614 H 0.75136 0.83206 0.70344
 H615 H 0.70922 0.81152 0.69042
 H616 H 0.66180 0.73437 0.71227
 H617 H 0.83918 0.76370 0.78237
 H618 H 0.79072 0.68545 0.80523
 H619 H 0.74697 0.66710 0.79478
 H620 H 0.67060 0.69425 0.74643
 H621 H 0.81638 0.80212 0.79191
 H622 H 0.72500 0.80188 0.82144
 H623 H 0.77481 0.69704 0.67503
 H624 H 0.68387 0.69564 0.70514
 Zr625 Zr 0.23173 0.23410 0.78347
 O626 O 0.24493 0.20649 0.81138
 O627 O 0.19190 0.23972 0.79276
 O628 O 0.23171 0.25123 0.82040
 O629 O 0.22196 0.18603 0.73697
 O630 O 0.25245 0.29109 0.81476
 O631 O 0.21371 0.19616 0.77824
 O632 O 0.17647 0.27056 0.76426
 O633 O 0.22591 0.27508 0.77708
 O634 O 0.21322 0.23790 0.74782
 O635 O 0.26990 0.25102 0.78551
 O636 O 0.25729 0.21471 0.75786
 Zr637 Zr 0.27159 0.27854 0.71588
 Zr638 Zr 0.26406 0.29149 0.77711
 Zr639 Zr 0.23921 0.22076 0.72223
 Zr640 Zr 0.20882 0.27859 0.74095
 O641 O 0.26129 0.18704 0.71012
 O642 O 0.19624 0.31553 0.75662
 O643 O 0.23332 0.26137 0.71361
 O644 O 0.24592 0.29725 0.74156
 O645 O 0.29042 0.27466 0.75142
 O646 O 0.27710 0.23751 0.72231
 C647 C 0.17350 0.25467 0.78305
 C648 C 0.21253 0.18041 0.75881
 C649 C 0.24043 0.27401 0.82842
 O650 O 0.24449 0.32804 0.78529
 O651 O 0.28675 0.32338 0.76418
 O652 O 0.29088 0.31601 0.72185
 C653 C 0.29503 0.32996 0.74224
 O654 O 0.29903 0.20380 0.78647
 Zr655 Zr 0.29437 0.23378 0.75829
 O656 O 0.31166 0.27332 0.70695
 O657 O 0.29820 0.29567 0.80090
 O658 O 0.32466 0.24633 0.78412
 O659 O 0.30938 0.19842 0.74132
 O660 O 0.32757 0.24505 0.73753
 C661 C 0.33052 0.26026 0.71827
 O662 O 0.25942 0.30749 0.68881
 O663 O 0.20318 0.21302 0.70209
 O664 O 0.26846 0.26290 0.67840
 O665 O 0.24377 0.22522 0.68326
 O666 O 0.17707 0.26517 0.71722
 O667 O 0.20268 0.30516 0.71003
 C668 C 0.25562 0.24248 0.66961
 H669 H 0.19579 0.22885 0.74656
 H670 H 0.24360 0.31646 0.73764
 H671 H 0.28828 0.22898 0.70929
 H672 H 0.27811 0.24848 0.80253
 H673 H 0.17684 0.31736 0.75317
 H674 H 0.25566 0.33749 0.79807
 H675 H 0.29643 0.31306 0.80975
 H676 H 0.34088 0.23561 0.78067
 H677 H 0.16119 0.27628 0.72098
 H678 H 0.20550 0.19570 0.69323
 H679 H 0.24978 0.17735 0.69780
 H680 H 0.32871 0.19741 0.74539
 H681 H 0.18491 0.31372 0.71129
 H682 H 0.27505 0.31119 0.67818
 H683 H 0.22939 0.20245 0.82201
 H684 H 0.31785 0.19772 0.78731
 Zr685 Zr 0.26970 0.76555 0.28048
 O686 O 0.25679 0.79140 0.30964
 O687 O 0.31075 0.76415 0.28710
 O688 O 0.27462 0.74788 0.31698
 O689 O 0.27012 0.81564 0.23528
 O690 O 0.25961 0.70545 0.31073
 O691 O 0.28413 0.80495 0.27538
 O692 O 0.32645 0.73750 0.25554
 O693 O 0.27988 0.72585 0.27188
 O694 O 0.28388 0.76527 0.24349
 O695 O 0.23434 0.74379 0.28420
 O696 O 0.23882 0.78256 0.25783
 Zr697 Zr 0.22767 0.71894 0.21381
 Zr698 Zr 0.24426 0.70467 0.27368
 Zr699 Zr 0.25301 0.78024 0.22083
 Zr700 Zr 0.29252 0.72582 0.23444
 O701 O 0.22621 0.81245 0.21434
 O702 O 0.31130 0.69026 0.24759
 O703 O 0.26293 0.74107 0.20971
 O704 O 0.25832 0.70249 0.23671
 O705 O 0.21311 0.71901 0.25068
 O706 O 0.21776 0.75862 0.22268
 C707 C 0.32965 0.75258 0.27510
 C708 C 0.28227 0.82112 0.25635
 C709 C 0.26950 0.72401 0.32477
 O710 O 0.26932 0.67082 0.27864
 O711 O 0.22388 0.67078 0.26075
 O712 O 0.21213 0.67989 0.21977
 C713 C 0.21242 0.66465 0.23958
 O714 O 0.19962 0.78687 0.28944
 Zr715 Zr 0.20461 0.75865 0.25973
 O716 O 0.18659 0.71932 0.20749
 O717 O 0.21405 0.69487 0.29940
 O718 O 0.17965 0.74132 0.28703
 O719 O 0.18284 0.79205 0.24550
 O720 O 0.17074 0.74315 0.24090
 C721 C 0.16759 0.72863 0.22093
 O722 O 0.24025 0.69222 0.18523
 O723 O 0.28425 0.79189 0.19698
 O724 O 0.22466 0.73623 0.17693
 O725 O 0.24104 0.77832 0.18278
 O726 O 0.31962 0.74352 0.20929
 O727 O 0.29777 0.70152 0.20183
 C728 C 0.23093 0.75975 0.16891
 H729 H 0.30000 0.77615 0.24120
 H730 H 0.26231 0.68383 0.23168
 H731 H 0.20392 0.76614 0.21109
 H732 H 0.22780 0.74470 0.30174
 H733 H 0.33029 0.69111 0.24290
 H734 H 0.26104 0.65948 0.29161
 H735 H 0.21910 0.67749 0.30715
 H736 H 0.16183 0.74984 0.28520
 H737 H 0.33688 0.73391 0.21123
 H738 H 0.27906 0.80938 0.18955
 H739 H 0.23446 0.82410 0.20160
 H740 H 0.16415 0.79004 0.25084
 H741 H 0.31616 0.69421 0.20192
 H742 H 0.22408 0.68701 0.17539
 H743 H 0.27287 0.79672 0.31957
 H744 H 0.18040 0.79039 0.29181
 Zr745 Zr 0.22815 0.77867 0.71359
 O746 O 0.24032 0.80447 0.68441
 O747 O 0.18711 0.77710 0.70706
 O748 O 0.22325 0.76087 0.67708
 O749 O 0.22670 0.82796 0.75963
 O750 O 0.23901 0.71837 0.68296
 O751 O 0.21358 0.81843 0.71908
 O752 O 0.17236 0.74952 0.73800
 O753 O 0.21918 0.73874 0.72178
 O754 O 0.21396 0.77782 0.75057
 O755 O 0.26403 0.75717 0.70953
 O756 O 0.25855 0.79565 0.73652
 Zr757 Zr 0.27147 0.73178 0.77980
 Zr758 Zr 0.25532 0.71782 0.71969
 Zr759 Zr 0.24447 0.79268 0.77348
 Zr760 Zr 0.20645 0.73818 0.75915
 O761 O 0.27041 0.82503 0.78067
 O762 O 0.18869 0.70250 0.74559
 O763 O 0.23558 0.75340 0.78415
 O764 O 0.24128 0.71523 0.75663
 O765 O 0.28602 0.73233 0.74290
 O766 O 0.28030 0.77159 0.77131
 C767 C 0.16866 0.76483 0.71872
 C768 C 0.21492 0.83415 0.73858
 C769 C 0.22842 0.73689 0.66924
 O770 O 0.23170 0.68332 0.71474
 O771 O 0.27741 0.68435 0.73205
 O772 O 0.28723 0.69260 0.77366
 C773 C 0.28819 0.67787 0.75348
 O774 O 0.29744 0.80065 0.70482
 Zr775 Zr 0.29332 0.77215 0.73419
 O776 O 0.31261 0.73255 0.78578
 O777 O 0.28545 0.70903 0.69337
 O778 O 0.31876 0.75530 0.70669
 O779 O 0.31409 0.80573 0.74878
 O780 O 0.32761 0.75707 0.75274
 C781 C 0.33125 0.74240 0.77246
 O782 O 0.25981 0.70497 0.80836
 O783 O 0.21278 0.80380 0.79731
 O784 O 0.27416 0.74891 0.81693
 O785 O 0.25610 0.79053 0.81152
 O786 O 0.17879 0.75549 0.78437
 O787 O 0.20172 0.71356 0.79143
 C788 C 0.26692 0.77220 0.82528
 H789 H 0.19759 0.78862 0.75293
 H790 H 0.23776 0.69650 0.76143
 H791 H 0.29390 0.77920 0.78301
 H792 H 0.27043 0.75825 0.69196
 H793 H 0.16968 0.70308 0.75027
 H794 H 0.24030 0.67226 0.70157
 H795 H 0.28101 0.69157 0.68552
 H796 H 0.33632 0.76405 0.70857
 H797 H 0.16177 0.74578 0.78221
 H798 H 0.21746 0.82125 0.80505
 H799 H 0.26176 0.83651 0.79349
 H800 H 0.33281 0.80409 0.74333
 H801 H 0.18345 0.70629 0.79132
 H802 H 0.27616 0.69993 0.81813
 H803 H 0.22405 0.80976 0.67465
 H804 H 0.31657 0.80437 0.70241
 Zr805 Zr 0.27419 0.22055 0.21477
 O806 O 0.25997 0.19409 0.18633
 O807 O 0.31476 0.22239 0.20695
 O808 O 0.27612 0.23729 0.17801
 O809 O 0.27957 0.17192 0.26095
 O810 O 0.26029 0.27979 0.18350
 O811 O 0.28916 0.18103 0.21991
 O812 O 0.33147 0.25067 0.23712
 O813 O 0.28348 0.26069 0.22217
 O814 O 0.29121 0.22213 0.25117
 O815 O 0.23788 0.24171 0.21151
 O816 O 0.24562 0.20377 0.23868
 Zr817 Zr 0.23548 0.26826 0.28151
 Zr818 Zr 0.24708 0.28131 0.22085
 Zr819 Zr 0.26257 0.20740 0.27505
 Zr820 Zr 0.29891 0.26202 0.25913
 O821 O 0.23751 0.17495 0.28341
 O822 O 0.31544 0.29761 0.24476
 O823 O 0.27180 0.24695 0.28510
 O824 O 0.26376 0.28468 0.25732
 O825 O 0.21820 0.26701 0.24512
 O826 O 0.22644 0.22822 0.27372
 C827 C 0.33393 0.23506 0.21793
 C828 C 0.28944 0.16549 0.23944
 C829 C 0.26994 0.26088 0.16991
 O830 O 0.27037 0.31559 0.21451
 O831 O 0.22606 0.31502 0.23366
 O832 O 0.21809 0.30682 0.27524
 C833 C 0.21607 0.32148 0.25509
 O834 O 0.20424 0.19814 0.20812
 Zr835 Zr 0.21050 0.22702 0.23716
 O836 O 0.19501 0.26725 0.28911
 O837 O 0.21487 0.28973 0.19558
 O838 O 0.18299 0.24356 0.21043
 O839 O 0.19107 0.19345 0.25249
 O840 O 0.17756 0.24201 0.25695
 C841 C 0.17540 0.25698 0.27667
 O842 O 0.24948 0.29574 0.30910
 O843 O 0.29606 0.19690 0.29802
 O844 O 0.23498 0.25162 0.31872
 O845 O 0.25364 0.21029 0.31328
 O846 O 0.32846 0.24531 0.28372
 O847 O 0.30580 0.28729 0.29095
 C848 C 0.24294 0.22848 0.32698
 H849 H 0.30780 0.21146 0.25309
 H850 H 0.26742 0.30353 0.26181
 H851 H 0.21375 0.22065 0.28583
 H852 H 0.23014 0.24023 0.19419
 H853 H 0.33476 0.29726 0.24895
 H854 H 0.26058 0.32653 0.20172
 H855 H 0.21869 0.30705 0.18742
 H856 H 0.16557 0.23490 0.21299
 H857 H 0.34528 0.25502 0.28093
 H858 H 0.29205 0.17957 0.30608
 H859 H 0.24723 0.16379 0.29608
 H860 H 0.17195 0.19494 0.24764
 H861 H 0.32407 0.29451 0.29035
 H862 H 0.23394 0.30097 0.31936
 H863 H 0.27546 0.18868 0.17604
 H864 H 0.18495 0.19455 0.20619
 Zr865 Zr 0.72767 0.72817 0.27971
 O866 O 0.74283 0.69974 0.30598
 O867 O 0.68751 0.72986 0.28924
 O868 O 0.72700 0.74267 0.31765
 O869 O 0.71930 0.68340 0.22982
 O870 O 0.74679 0.78353 0.31527
 O871 O 0.71292 0.68915 0.27214
 O872 O 0.66998 0.76127 0.26238
 O873 O 0.71896 0.76910 0.27600
 O874 O 0.70889 0.73312 0.24430
 O875 O 0.76454 0.74771 0.28278
 O876 O 0.75439 0.71244 0.25297
 Zr877 Zr 0.76391 0.77962 0.21516
 Zr878 Zr 0.75588 0.78833 0.27706
 Zr879 Zr 0.73579 0.71957 0.21769
 Zr880 Zr 0.70161 0.77379 0.24003
 O881 O 0.75977 0.68749 0.20494
 O882 O 0.68641 0.80832 0.25828
 O883 O 0.72695 0.76015 0.21154
 O884 O 0.73728 0.79501 0.24184
 O885 O 0.78303 0.77491 0.25042
 O886 O 0.77246 0.73882 0.21908
 C887 C 0.66809 0.74390 0.28011
 C888 C 0.71125 0.67528 0.25145
 C889 C 0.73608 0.76449 0.32759
 O890 O 0.73300 0.82186 0.28824
 O891 O 0.77539 0.82317 0.26531
 O892 O 0.78217 0.81681 0.22312
 C893 C 0.78456 0.83045 0.24381
 O894 O 0.79643 0.70212 0.28061
 Zr895 Zr 0.79007 0.73409 0.25474
 O896 O 0.80403 0.77834 0.20583
 O897 O 0.79040 0.79420 0.29998
 O898 O 0.81935 0.74617 0.28180
 O899 O 0.80823 0.70181 0.23530
 O900 O 0.82235 0.75047 0.23555
 C901 C 0.82397 0.76692 0.21700
 O902 O 0.74876 0.80951 0.19041
 O903 O 0.70069 0.71186 0.19610
 O904 O 0.76293 0.76628 0.17698
 O905 O 0.74175 0.72613 0.17906
 O906 O 0.67069 0.76029 0.21537
 O907 O 0.69354 0.80227 0.21105
 C908 C 0.75277 0.74509 0.16686
 H909 H 0.69211 0.72302 0.24237
 H910 H 0.73368 0.81425 0.23898
 H911 H 0.78435 0.73204 0.20574
 H912 H 0.77316 0.74444 0.29951
 H913 H 0.66690 0.80883 0.25505
 H914 H 0.74383 0.83159 0.30109
 H915 H 0.78748 0.81083 0.30980
 H916 H 0.83623 0.73688 0.27764
 H917 H 0.65420 0.77015 0.21976
 H918 H 0.70397 0.69530 0.18627
 H919 H 0.74916 0.67797 0.19178
 H920 H 0.82754 0.70229 0.23951
 H921 H 0.67539 0.80975 0.21306
 H922 H 0.76374 0.81524 0.17977
 H923 H 0.72767 0.69387 0.31630
 H924 H 0.81553 0.69701 0.28100
 Zr925 Zr 0.77196 0.27161 0.78681
 O926 O 0.75878 0.29657 0.81653
 O927 O 0.81284 0.26942 0.79430
 O928 O 0.77610 0.25264 0.82276
 O929 O 0.77315 0.32303 0.74307
 O930 O 0.75971 0.21090 0.81529
 O931 O 0.78678 0.31113 0.78296
 O932 O 0.82864 0.24283 0.76274
 O933 O 0.78125 0.23182 0.77757
 O934 O 0.78725 0.27184 0.75027
 O935 O 0.73595 0.25063 0.78913
 O936 O 0.74226 0.28989 0.76370
 Zr937 Zr 0.73041 0.22776 0.71801
 Zr938 Zr 0.74503 0.21148 0.77792
 Zr939 Zr 0.75743 0.28793 0.72707
 Zr940 Zr 0.79506 0.23234 0.74059
 O941 O 0.73100 0.31999 0.71871
 O942 O 0.81266 0.19613 0.75360
 O943 O 0.76653 0.24877 0.71552
 O944 O 0.76006 0.20998 0.74129
 O945 O 0.71488 0.22730 0.75451
 O946 O 0.72146 0.26749 0.72741
 C947 C 0.83174 0.25759 0.78254
 C948 C 0.78488 0.32795 0.76442
 C949 C 0.77034 0.22867 0.82980
 O950 O 0.76906 0.17688 0.78286
 O951 O 0.72473 0.17805 0.76345
 O952 O 0.71336 0.18925 0.72278
 C953 C 0.71341 0.17311 0.74191
 O954 O 0.70244 0.29448 0.79457
 Zr955 Zr 0.70739 0.26700 0.76424
 O956 O 0.68948 0.23008 0.71054
 O957 O 0.71365 0.20201 0.80244
 O958 O 0.68102 0.24977 0.79038
 O959 O 0.68726 0.30152 0.75031
 O960 O 0.67360 0.25334 0.74427
 C961 C 0.67046 0.23975 0.72377
 O962 O 0.74266 0.20101 0.68933
 O963 O 0.79035 0.30066 0.70585
 O964 O 0.72976 0.24556 0.68122
 O965 O 0.74974 0.28577 0.68817
 O966 O 0.82288 0.25018 0.71625
 O967 O 0.80103 0.20825 0.70796
 C968 C 0.73955 0.26793 0.67353
 H969 H 0.80359 0.28257 0.74874
 H970 H 0.76374 0.19137 0.73591
 H971 H 0.70840 0.27567 0.71540
 H972 H 0.72902 0.25125 0.80654
 H973 H 0.83183 0.19667 0.74952
 H974 H 0.76014 0.16550 0.79541
 H975 H 0.71798 0.18432 0.80991
 H976 H 0.66357 0.25901 0.78840
 H977 H 0.84012 0.24065 0.71867
 H978 H 0.78550 0.31818 0.69828
 H979 H 0.74014 0.33161 0.70653
 H980 H 0.66836 0.30013 0.75518
 H981 H 0.81954 0.20125 0.70820
 H982 H 0.72658 0.19667 0.67896
 H983 H 0.77476 0.30149 0.82679
 H984 H 0.68327 0.29867 0.79645
 C985 C 0.44077 0.98412 0.31631
 C986 C 0.45358 0.97914 0.29344
 C987 C 0.43929 0.98049 0.27036
 C988 C 0.41181 0.98733 0.26956
 C989 C 0.39885 0.98971 0.29294
 C990 C 0.41315 0.98872 0.31585
 C991 C 0.45594 0.98658 0.34061
 C992 C 0.45208 1.00950 0.35538
 C993 C 0.46348 1.01142 0.37950
 C994 C 0.47894 0.99038 0.38978
 C995 C 0.48439 0.96804 0.37447
 C996 C 0.47298 0.96619 0.34991
 H997 H 0.45003 0.97612 0.25330
 H998 H 0.37758 0.99340 0.29338
 H999 H 0.45927 1.02914 0.39060
 H1000 H 0.49615 0.95151 0.38192
 H1001 H 0.40265 0.99196 0.33333
 H1002 H 0.43954 1.02573 0.34845
 H1003 H 0.47478 0.97500 0.29336
 H1004 H 0.47636 0.94837 0.33873
 C1005 C -0.06303 0.48578 0.82182
 C1006 C -0.04926 0.48265 0.79912
 C1007 C -0.06216 0.48715 0.77569
 C1008 C -0.08912 0.49570 0.77425
 C1009 C -0.10266 0.49861 0.79728
 C1010 C -0.08981 0.49411 0.82055
 C1011 C -0.05007 0.47998 0.84689
 C1012 C -0.06470 0.46751 0.86586
 C1013 C -0.05450 0.46554 0.89053
 C1014 C -0.02922 0.47559 0.89685
 C1015 C -0.01353 0.48611 0.87761
 C1016 C -0.02391 0.48832 0.85277
 H1017 H -0.05106 0.48282 0.75883
 H1018 H -0.12357 0.50411 0.79719
 H1019 H -0.06697 0.45738 0.90507
 H1020 H 0.00584 0.49439 0.88215
 H1021 H -0.10102 0.49704 0.83765
 H1022 H -0.08457 0.46015 0.86187
 H1023 H -0.02876 0.47574 0.79943
 H1024 H -0.01211 0.49800 0.83858
 C1025 C 0.06294 0.00997 0.82561
 C1026 C 0.09061 0.00567 0.82507
 C1027 C 0.10405 0.00522 0.80214
 C1028 C 0.09020 0.00793 0.77878
 C1029 C 0.06261 0.01413 0.77967
 C1030 C 0.04920 0.01492 0.80274
 C1031 C 0.04873 0.00807 0.85004
 C1032 C 0.03025 0.02762 0.85792
 C1033 C 0.01925 0.02646 0.88226
 C1034 C 0.02650 0.00564 0.89891
 C1035 C 0.04361 -0.01467 0.89015
 C1036 C 0.05461 -0.01341 0.86620
 H1037 H 0.12542 0.00205 0.80256
 H1038 H 0.05114 0.01868 0.76270
 H1039 H 0.00621 0.04243 0.88845
 H1040 H 0.04931 -0.03129 0.90223
 H1041 H 0.02795 0.01884 0.80263
 H1042 H 0.02527 0.04435 0.84573
 H1043 H 0.10192 0.00259 0.84250
 H1044 H 0.06822 -0.02910 0.86045
 C1045 C 0.55390 0.50359 0.31814
 C1046 C 0.57183 0.48236 0.31366
 C1047 C 0.58663 0.48113 0.29144
 C1048 C 0.58470 0.50161 0.27315
 C1049 C 0.56545 0.52197 0.27715
 C1050 C 0.55053 0.52306 0.29924
 C1051 C 0.53964 0.50580 0.34275
 C1052 C 0.53473 0.53091 0.35414
 C1053 C 0.52423 0.53270 0.37857
 C1054 C 0.51866 0.50945 0.39213
 C1055 C 0.52228 0.48453 0.38041
 C1056 C 0.53229 0.48271 0.35595
 H1057 H 0.59966 0.46411 0.28910
 H1058 H 0.56270 0.53779 0.26338
 H1059 H 0.52210 0.55211 0.38745
 H1060 H 0.51823 0.46632 0.39064
 H1061 H 0.53646 0.53934 0.30155
 H1062 H 0.54032 0.54917 0.34479
 H1063 H 0.57508 0.46689 0.32766
 H1064 H 0.53496 0.46309 0.34770
 C1065 C 0.54624 0.50104 0.18363
 C1066 C 0.56340 0.52290 0.18708
 C1067 C 0.58049 0.52457 0.20830
 C1068 C 0.58157 0.50398 0.22652
 C1069 C 0.56258 0.48333 0.22393
 C1070 C 0.54554 0.48167 0.20273
 C1071 C 0.53047 0.49776 0.15955
 C1072 C 0.51966 0.52013 0.14689
 C1073 C 0.50878 0.51767 0.12243
 C1074 C 0.50809 0.49277 0.11018
 C1075 C 0.51714 0.47006 0.12330
 C1076 C 0.52817 0.47251 0.14780
 H1077 H 0.59297 0.54193 0.20986
 H1078 H 0.56195 0.46753 0.23786
 H1079 H 0.50234 0.53552 0.11242
 H1080 H 0.51758 0.45081 0.11390
 H1081 H 0.53209 0.46493 0.20109
 H1082 H 0.52063 0.53979 0.15543
 H1083 H 0.56437 0.53840 0.17288
 H1084 H 0.53659 0.45490 0.15680
 C1085 C 0.05478 1.00251 0.68538
 C1086 C 0.05224 0.98429 0.70531
 C1087 C 0.06841 0.98631 0.72712
 C1088 C 0.08735 1.00692 0.73004
 C1089 C 0.09025 1.02464 0.70955
 C1090 C 0.07410 1.02259 0.68778
 C1091 C 0.03846 1.00013 0.66157
 C1092 C 0.02995 1.02325 0.64860
 C1093 C 0.01865 1.02148 0.62431
 C1094 C 0.01507 0.99657 0.61257
 C1095 C 0.02152 0.97327 0.62611
 C1096 C 0.03316 0.97502 0.65046
 H1097 H 0.06618 0.97162 0.74193
 H1098 H 0.10554 1.03969 0.70966
 H1099 H 0.01404 1.03971 0.61406
 H1100 H 0.01948 0.95389 0.61715
 H1101 H 0.07741 1.03633 0.67239
 H1102 H 0.03310 1.04285 0.65679
 H1103 H 0.03773 0.96844 0.70406
 H1104 H 0.03959 0.95681 0.65982
 C1105 C -0.05583 0.50100 0.68120
 C1106 C -0.05155 0.51843 0.70171
 C1107 C -0.06713 0.51674 0.72336
 C1108 C -0.08724 0.49728 0.72549
 C1109 C -0.09194 0.48046 0.70441
 C1110 C -0.07634 0.48214 0.68283
 C1111 C -0.03982 0.50277 0.65772
 C1112 C -0.03287 0.47935 0.64461
 C1113 C -0.02153 0.48069 0.62074
 C1114 C -0.01640 0.50543 0.60948
 C1115 C -0.02139 0.52893 0.62319
 C1116 C -0.03304 0.52762 0.64716
 H1117 H -0.06354 0.53079 0.73865
 H1118 H -0.10818 0.46644 0.70399
 H1119 H -0.01795 0.46229 0.61044
 H1120 H -0.01806 0.54823 0.61465
 H1121 H -0.08095 0.46908 0.66699
 H1122 H -0.03713 0.45990 0.65239
 H1123 H -0.03610 0.53335 0.70107
 H1124 H -0.03820 0.54606 0.65669
 C1125 C 0.44553 -0.00482 0.17741
 C1126 C 0.42572 -0.02449 0.17868
 C1127 C 0.40960 -0.02666 0.19992
 C1128 C 0.41310 -0.00955 0.22098
 C1129 C 0.43245 0.01073 0.21912
 C1130 C 0.44850 0.01292 0.19785
 C1131 C 0.46231 -0.00258 0.15444
 C1132 C 0.46843 0.02246 0.14390
 C1133 C 0.48091 0.02411 0.12034
 C1134 C 0.48751 0.00075 0.10703
 C1135 C 0.48313 -0.02411 0.11839
 C1136 C 0.47085 -0.02577 0.14182
 H1137 H 0.39405 -0.04143 0.19930
 H1138 H 0.43523 0.02492 0.23444
 H1139 H 0.48348 0.04348 0.11168
 H1140 H 0.48777 -0.04241 0.10833
 H1141 H 0.46339 0.02843 0.19750
 H1142 H 0.46205 0.04074 0.15304
 H1143 H 0.42216 -0.03788 0.16287
 H1144 H 0.46708 -0.04534 0.14961
 C1145 C 0.32101 0.40147 0.00175
 C1146 C 0.29950 0.40761 -0.01480
 C1147 C 0.27586 0.39276 -0.01438
 C1148 C 0.27248 0.37201 0.00332
 C1149 C 0.29520 0.36468 0.01820
 C1150 C 0.31868 0.37935 0.01772
 C1151 C 0.34612 0.41736 0.00219
 C1152 C 0.36020 0.42197 0.02513
 C1153 C 0.38441 0.43574 0.02553
 C1154 C 0.39519 0.44541 0.00301
 C1155 C 0.38085 0.44121 -0.01986
 C1156 C 0.35670 0.42739 -0.02026
 H1157 H 0.25983 0.39796 -0.02751
 H1158 H 0.29541 0.34728 0.03024
 H1159 H 0.39470 0.43872 0.04351
 H1160 H 0.38843 0.44834 -0.03764
 H1161 H 0.33530 0.37298 0.02967
 H1162 H 0.35244 0.41498 0.04289
 H1163 H 0.30073 0.42418 -0.02784
 H1164 H 0.34667 0.42400 -0.03829
 C1165 C -0.17446 0.90307 0.50433
 C1166 C -0.19952 0.91574 0.50423
 C1167 C -0.22300 0.90091 0.50157
 C1168 C -0.22216 0.87290 0.49790
 C1169 C -0.19672 0.86046 0.49824
 C1170 C -0.17335 0.87524 0.50144
 C1171 C -0.14952 0.91887 0.50688
 C1172 C -0.12904 0.91137 0.52410
 C1173 C -0.10517 0.92581 0.52559
 C1174 C -0.10110 0.94760 0.50943
 C1175 C -0.12173 0.95521 0.49247
 C1176 C -0.14573 0.94121 0.49141
 H1177 H -0.24164 0.91162 0.50316
 H1178 H -0.19501 0.83898 0.49626
 H1179 H -0.08956 0.91939 0.53870
 H1180 H -0.11921 0.97195 0.47982
 H1181 H -0.15431 0.86491 0.50138
 H1182 H -0.13150 0.89430 0.53634
 H1183 H -0.20096 0.93716 0.50688
 H1184 H -0.16107 0.94736 0.47790
 C1185 C -0.17223 0.10108 0.99623
 C1186 C -0.17449 0.12520 1.00975
 C1187 C -0.19912 0.13816 1.01223
 C1188 C -0.22282 0.12721 1.00193
 C1189 C -0.22027 0.10346 0.98753
 C1190 C -0.19546 0.09050 0.98493
 C1191 C -0.14579 0.08694 0.99486
 C1192 C -0.13685 0.07444 0.97252
 C1193 C -0.11185 0.06125 0.97199
 C1194 C -0.09551 0.05993 0.99392
 C1195 C -0.10451 0.07271 1.01601
 C1196 C -0.12909 0.08594 1.01646
 H1197 H -0.19943 0.15725 1.02188
 H1198 H -0.23746 0.09506 0.97785
 H1199 H -0.10564 0.05156 0.95471
 H1200 H -0.09256 0.07233 1.03329
 H1201 H -0.19451 0.07206 0.97421
 H1202 H -0.14911 0.07501 0.95544
 H1203 H -0.15697 0.13447 1.01807
 H1204 H -0.13528 0.09497 1.03407
 C1205 C 0.32483 0.60444 0.49292
 C1206 C 0.30287 0.59777 0.47736
 C1207 C 0.27829 0.61103 0.47998
 C1208 C 0.27460 0.63109 0.49857
 C1209 C 0.29724 0.63848 0.51321
 C1210 C 0.32169 0.62518 0.51066
 C1211 C 0.35071 0.58946 0.49153
 C1212 C 0.36449 0.58273 0.51400
 C1213 C 0.38860 0.56873 0.51346
 C1214 C 0.40001 0.56083 0.49040
 C1215 C 0.38644 0.56767 0.46773
 C1216 C 0.36193 0.58169 0.46830
 H1217 H 0.26198 0.60560 0.46734
 H1218 H 0.29652 0.65507 0.52632
 H1219 H 0.39830 0.56406 0.53141
 H1220 H 0.39457 0.56197 0.44965
 H1221 H 0.33841 0.63151 0.52239
 H1222 H 0.35638 0.58796 0.53222
 H1223 H 0.30456 0.58203 0.46338
 H1224 H 0.35190 0.58671 0.45060
 C1225 C 0.17524 0.59937 0.50721
 C1226 C 0.17392 0.62658 0.50097
 C1227 C 0.19722 0.64126 0.49750
 C1228 C 0.22277 0.62933 0.50019
 C1229 C 0.22384 0.60209 0.50723
 C1230 C 0.20048 0.58729 0.51017
 C1231 C 0.15041 0.58346 0.50990
 C1232 C 0.14772 0.55894 0.49720
 C1233 C 0.12392 0.54465 0.49812
 C1234 C 0.10230 0.55414 0.51224
 C1235 C 0.10523 0.57817 0.52580
 C1236 C 0.12895 0.59286 0.52438
 H1237 H 0.19534 0.66228 0.49296
 H1238 H 0.24261 0.59213 0.51123
 H1239 H 0.12228 0.52620 0.48745
 H1240 H 0.08884 0.58609 0.53663
 H1241 H 0.20213 0.56644 0.51541
 H1242 H 0.16378 0.55123 0.48581
 H1243 H 0.15478 0.63647 0.49849
 H1244 H 0.13051 0.61165 0.53450
 C1245 C 0.67596 0.09849 0.00567
 C1246 C 0.67688 0.12344 -0.00634
 C1247 C 0.70079 0.13749 -0.00781
 C1248 C 0.72508 0.12668 0.00170
 C1249 C 0.72381 0.10207 0.01470
 C1250 C 0.69967 0.08813 0.01651
 C1251 C 0.65034 0.08340 0.00625
 C1252 C 0.64138 0.07115 0.02850
 C1253 C 0.61689 0.05754 0.02864
 C1254 C 0.60112 0.05541 0.00639
 C1255 C 0.61027 0.06762 -0.01576
 C1256 C 0.63435 0.08149 -0.01579
 H1257 H 0.70019 0.15711 -0.01637
 H1258 H 0.74143 0.09367 0.02382
 H1259 H 0.61055 0.04830 0.04599
 H1260 H 0.59874 0.06652 -0.03327
 H1261 H 0.69961 0.06909 0.02617
 H1262 H 0.65315 0.07241 0.04584
 H1263 H 0.65887 0.13240 -0.01425
 H1264 H 0.64069 0.09047 -0.03328
 C1265 C 0.67666 0.90027 0.49099
 C1266 C 0.68077 0.88129 0.51023
 C1267 C 0.70469 0.86689 0.51239
 C1268 C 0.72598 0.87152 0.49584
 C1269 C 0.72107 0.88958 0.47567
 C1270 C 0.69694 0.90388 0.47340
 C1271 C 0.65150 0.91646 0.48999
 C1272 C 0.63750 0.92148 0.46708
 C1273 C 0.61334 0.93603 0.46687
 C1274 C 0.60288 0.94617 0.48954
 C1275 C 0.61727 0.94139 0.51228
 C1276 C 0.64107 0.92677 0.51249
 H1277 H 0.70593 0.85173 0.52687
 H1278 H 0.73622 0.89282 0.46171
 H1279 H 0.60288 0.93931 0.44901
 H1280 H 0.61007 0.94880 0.53019
 H1281 H 0.69434 0.91813 0.45816
 H1282 H 0.64496 0.91368 0.44941
 H1283 H 0.66517 0.87725 0.52354
 H1284 H 0.65148 0.92368 0.53040
 C1285 C 0.17210 0.40380 1.00589
 C1286 C 0.17169 0.37583 1.00666
 C1287 C 0.19542 0.36112 1.00826
 C1288 C 0.22050 0.37383 1.00797
 C1289 C 0.22064 0.40197 1.01004
 C1290 C 0.19676 0.41672 1.00867
 C1291 C 0.14681 0.41929 1.00244
 C1292 C 0.14194 0.44208 1.01719
 C1293 C 0.11770 0.45585 1.01493
 C1294 C 0.09772 0.44740 0.99767
 C1295 C 0.10287 0.42516 0.98222
 C1296 C 0.12713 0.41113 0.98471
 H1297 H 0.19430 0.33953 1.00779
 H1298 H 0.23895 0.41291 1.01225
 H1299 H 0.11442 0.47299 1.02707
 H1300 H 0.08786 0.41808 0.96888
 H1301 H 0.19768 0.43832 1.00900
 H1302 H 0.15656 0.44880 1.03108
 H1303 H 0.15296 0.36526 1.00563
 H1304 H 0.13047 0.39381 0.97283
 C1305 C 0.00203 0.32013 0.41377
 C1306 C 0.01041 0.29594 0.42459
 C1307 C 0.01139 0.27291 0.40991
 C1308 C 0.00310 0.27341 0.38421
 C1309 C -0.00381 0.29822 0.37327
 C1310 C -0.00469 0.32122 0.38794
 C1311 C 0.00074 0.34443 0.42921
 C1312 C 0.02153 0.35066 0.44628
 C1313 C 0.02095 0.37455 0.45975
 C1314 C -0.00037 0.39254 0.45615
 C1315 C -0.02154 0.38586 0.43966
 C1316 C -0.02101 0.36194 0.42634
 H1317 H 0.01903 0.25494 0.41882
 H1318 H -0.00882 0.29966 0.35329
 H1319 H 0.03755 0.37931 0.47232
 H1320 H -0.03841 0.39922 0.43683
 H1321 H -0.01031 0.33995 0.37903
 H1322 H 0.03861 0.33746 0.44860
 H1323 H 0.01613 0.29481 0.44443
 H1324 H -0.03749 0.35722 0.41362
 C1325 C 0.49239 -0.18689 -0.07988
 C1326 C 0.51702 -0.19973 -0.08263
 C1327 C 0.51918 -0.22168 -0.09848
 C1328 C 0.49695 -0.23079 -0.11263
 C1329 C 0.47175 -0.21956 -0.10761
 C1330 C 0.46959 -0.19745 -0.09173
 C1331 C 0.49130 -0.16109 -0.06681
 C1332 C 0.47795 -0.13951 -0.07838
 C1333 C 0.48024 -0.11400 -0.06820
 C1334 C 0.49600 -0.10973 -0.04634
 C1335 C 0.50856 -0.13153 -0.03428
 C1336 C 0.50616 -0.15704 -0.04442
 H1337 H 0.53860 -0.23088 -0.10066
 H1338 H 0.45369 -0.22748 -0.11607
 H1339 H 0.47017 -0.09758 -0.07778
 H1340 H 0.52042 -0.12890 -0.01712
 H1341 H 0.45023 -0.18828 -0.08906
 H1342 H 0.46673 -0.14215 -0.09591
 H1343 H 0.53490 -0.19203 -0.07355
 H1344 H 0.51640 -0.17354 -0.03511
 C1345 C 0.00592 -0.17690 1.09327
 C1346 C 0.02423 -0.18460 1.11227
 C1347 C 0.02132 -0.20885 1.12472
 C1348 C 0.00050 -0.22632 1.11774
 C1349 C -0.01841 -0.21763 1.09940
 C1350 C -0.01562 -0.19341 1.08722
 C1351 C 0.00844 -0.15126 1.08020
 C1352 C 0.00281 -0.14965 1.05412
 C1353 C 0.00259 -0.12507 1.04205
 C1354 C 0.00840 -0.10181 1.05581
 C1355 C 0.01506 -0.10347 1.08168
 C1356 C 0.01494 -0.12806 1.09385
 H1357 H 0.03519 -0.21344 1.14001
 H1358 H -0.03542 -0.22982 1.09437
 H1359 H -0.00213 -0.12426 1.02196
 H1360 H 0.01955 -0.08568 1.09263
 H1361 H -0.03062 -0.18742 1.07331
 H1362 H -0.00172 -0.16740 1.04313
 H1363 H 0.04078 -0.17187 1.11754
 H1364 H 0.01903 -0.12881 1.11404
 C1365 C 0.51236 0.32042 0.57718
 C1366 C 0.53453 0.30933 0.58989
 C1367 C 0.53154 0.28706 0.60527
 C1368 C 0.50608 0.27618 0.60896
 C1369 C 0.48447 0.28623 0.59433
 C1370 C 0.48748 0.30829 0.57896
 C1371 C 0.51432 0.34589 0.56384
 C1372 C 0.50078 0.34964 0.54066
 C1373 C 0.49872 0.37500 0.53018
 C1374 C 0.51026 0.39693 0.54272
 C1375 C 0.52498 0.39287 0.56527
 C1376 C 0.52696 0.36750 0.57578
 H1377 H 0.54923 0.27855 0.61413
 H1378 H 0.46492 0.27742 0.59551
 H1379 H 0.48767 0.37744 0.51251
 H1380 H 0.53430 0.40938 0.57523
 H1381 H 0.47007 0.31649 0.56925
 H1382 H 0.49115 0.33308 0.53107
 H1383 H 0.55407 0.31803 0.58806
 H1384 H 0.53721 0.36503 0.59387
 C1385 C 0.49192 1.18768 0.57114
 C1386 C 0.51688 1.19918 0.57568
 C1387 C 0.51948 1.22013 0.59275
 C1388 C 0.49738 1.22938 0.60640
 C1389 C 0.47193 1.21970 0.59952
 C1390 C 0.46931 1.19878 0.58234
 C1391 C 0.49015 1.16229 0.55737
 C1392 C 0.47561 1.14133 0.56771
 C1393 C 0.47722 1.11589 0.55735
 C1394 C 0.49348 1.11097 0.53650
 C1395 C 0.50708 1.13225 0.52543
 C1396 C 0.50540 1.15776 0.53580
 H1397 H 0.53908 1.22841 0.59622
 H1398 H 0.45398 1.22799 0.60745
 H1399 H 0.46629 1.09996 0.56617
 H1400 H 0.51946 1.12912 0.50911
 H1401 H 0.44971 1.19078 0.57827
 H1402 H 0.46406 1.14427 0.58461
 H1403 H 0.53463 1.19110 0.56708
 H1404 H 0.51658 1.17378 0.52743
 C1405 C -0.01483 0.67947 1.08064
 C1406 C -0.02110 0.67758 1.10629
 C1407 C -0.01775 0.69941 1.12221
 C1408 C -0.00865 0.72392 1.11278
 C1409 C -0.00124 0.72520 1.08716
 C1410 C -0.00481 0.70338 1.07120
 C1411 C -0.01670 0.65573 1.06443
 C1412 C -0.03827 0.63834 1.06664
 C1413 C -0.03799 0.61380 1.05433
 C1414 C -0.01625 0.60651 1.03945
 C1415 C 0.00444 0.62465 1.03584
 C1416 C 0.00429 0.64908 1.04838
 H1417 H -0.02231 0.69727 1.14205
 H1418 H 0.00788 0.74272 1.07932
 H1419 H -0.05441 0.60026 1.05698
 H1420 H 0.02143 0.61941 1.02446
 H1421 H 0.00063 0.70508 1.05154
 H1422 H -0.05491 0.64337 1.07856
 H1423 H -0.02787 0.65896 1.11423
 H1424 H 0.02127 0.66208 1.04659
 C1425 C 0.51133 0.67961 -0.07881
 C1426 C 0.53367 0.69018 -0.09051
 C1427 C 0.53076 0.71158 -0.10710
 C1428 C 0.50525 0.72214 -0.11299
 C1429 C 0.48336 0.71273 -0.09942
 C1430 C 0.48628 0.69146 -0.08287
 C1431 C 0.51339 0.65480 -0.06428
 C1432 C 0.49892 0.65186 -0.04205
 C1433 C 0.49686 0.62690 -0.03089
 C1434 C 0.50936 0.60458 -0.04177
 C1435 C 0.52517 0.60791 -0.06315
 C1436 C 0.52713 0.63286 -0.07435
 H1437 H 0.54857 0.71973 -0.11514
 H1438 H 0.46372 0.72146 -0.10226
 H1439 H 0.48499 0.62501 -0.01410
 H1440 H 0.53525 0.59109 -0.07180
 H1441 H 0.46872 0.68364 -0.07399
 H1442 H 0.48848 0.66871 -0.03383
 H1443 H 0.55331 0.68172 -0.08696
 H1444 H 0.53818 0.63467 -0.09166
 C1445 C 0.00789 1.17494 0.41045
 C1446 C -0.01194 1.19416 0.41466
 C1447 C -0.01257 1.21759 0.40075
 C1448 C 0.00680 1.22270 0.38244
 C1449 C 0.02575 1.20254 0.37732
 C1450 C 0.02662 1.17922 0.39156
 C1451 C 0.00833 1.15010 0.42522
 C1452 C 0.01410 1.12568 0.41338
 C1453 C 0.01372 1.10210 0.42713
 C1454 C 0.00717 1.10256 0.45282
 C1455 C 0.00139 1.12688 0.46473
 C1456 C 0.00222 1.15056 0.45107
 H1457 H -0.02823 1.23200 0.40443
 H1458 H 0.03976 1.20437 0.36218
 H1459 H 0.01793 1.08343 0.41752
 H1460 H -0.00349 1.12759 0.48461
 H1461 H 0.04196 1.16451 0.38774
 H1462 H 0.01831 1.12469 0.39338
 H1463 H -0.02726 1.19093 0.42844
 H1464 H -0.00187 1.16921 0.46073
 C1465 C 0.73794 0.68717 0.92868
 C1466 C 0.75611 0.69594 0.94746
 C1467 C 0.75839 0.68261 0.97083
 C1468 C 0.74188 0.66074 0.97646
 C1469 C 0.72508 0.65120 0.95671
 C1470 C 0.72249 0.66465 0.93377
 C1471 C 0.73642 0.69958 0.90299
 C1472 C 0.73316 0.68299 0.88171
 C1473 C 0.73213 0.69360 0.85745
 C1474 C 0.73479 0.72116 0.85338
 C1475 C 0.73743 0.73816 0.87449
 C1476 C 0.73834 0.72741 0.89916
 H1477 H 0.77290 0.68959 0.98470
 H1478 H 0.71376 0.63308 0.95865
 H1479 H 0.73006 0.67990 0.84163
 H1480 H 0.73984 0.75944 0.87188
 H1481 H 0.70840 0.65704 0.91981
 H1482 H 0.73221 0.66150 0.88364
 H1483 H 0.76904 0.71265 0.94387
 H1484 H 0.74070 0.74077 0.91518
 C1485 C 0.24304 0.18739 0.42926
 C1486 C 0.22547 0.16686 0.43534
 C1487 C 0.22787 0.15329 0.45820
 C1488 C 0.24672 0.16090 0.47707
 C1489 C 0.26516 0.18080 0.47043
 C1490 C 0.26310 0.19415 0.44704
 C1491 C 0.24146 0.19957 0.40348
 C1492 C 0.24620 0.22692 0.39913
 C1493 C 0.24510 0.23736 0.37434
 C1494 C 0.23939 0.22049 0.35366
 C1495 C 0.23386 0.19351 0.35829
 C1496 C 0.23514 0.18319 0.38264
 H1497 H 0.21481 0.13650 0.46050
 H1498 H 0.28101 0.18626 0.48358
 H1499 H 0.24982 0.25815 0.37125
 H1500 H 0.22948 0.17994 0.34277
 H1501 H 0.27758 0.20925 0.44264
 H1502 H 0.25096 0.24012 0.41482
 H1503 H 0.20985 0.16083 0.42217
 H1504 H 0.23199 0.16198 0.38493
 C1505 C 0.75765 0.30990 0.43087
 C1506 C 0.77233 0.30269 0.45264
 C1507 C 0.76909 0.31692 0.47530
 C1508 C 0.75031 0.33808 0.47715
 C1509 C 0.73538 0.34475 0.45510
 C1510 C 0.73895 0.33082 0.43244
 C1511 C 0.76347 0.29793 0.40580
 C1512 C 0.76982 0.31491 0.38584
 C1513 C 0.77218 0.30499 0.36135
 C1514 C 0.76797 0.27778 0.35597
 C1515 C 0.76345 0.26027 0.37619
 C1516 C 0.76132 0.27031 0.40105
 H1517 H 0.78182 0.31185 0.49138
 H1518 H 0.72178 0.36161 0.45474
 H1519 H 0.77608 0.31898 0.34628
 H1520 H 0.75999 0.23927 0.37259
 H1521 H 0.72762 0.33697 0.41576
 H1522 H 0.77213 0.33616 0.38910
 H1523 H 0.78725 0.28699 0.45177
 H1524 H 0.75659 0.25681 0.41627
 C1525 C 0.25922 0.80895 0.92836
 C1526 C 0.27422 0.80113 0.94974
 C1527 C 0.27085 0.81422 0.97298
 C1528 C 0.25164 0.83486 0.97584
 C1529 C 0.23634 0.84214 0.95419
 C1530 C 0.24006 0.82934 0.93093
 C1531 C 0.26510 0.79810 0.90281
 C1532 C 0.27034 0.81599 0.88323
 C1533 C 0.27314 0.80690 0.85848
 C1534 C 0.27046 0.77964 0.85240
 C1535 C 0.26699 0.76134 0.87221
 C1536 C 0.26445 0.77053 0.89733
 H1537 H 0.28383 0.80871 0.98875
 H1538 H 0.22236 0.85866 0.95465
 H1539 H 0.27617 0.82155 0.84378
 H1540 H 0.26467 0.74027 0.86811
 H1541 H 0.22843 0.83597 0.91460
 H1542 H 0.27153 0.83723 0.88701
 H1543 H 0.28949 0.78584 0.94816
 H1544 H 0.26061 0.75633 0.91221
 C1545 C 0.23894 0.80492 0.06989
 C1546 C 0.23596 0.79265 0.04611
 C1547 C 0.24071 0.80694 0.02383
 C1548 C 0.24950 0.83377 0.02466
 C1549 C 0.25239 0.84577 0.04876
 C1550 C 0.24747 0.83158 0.07090
 C1551 C 0.23250 0.79061 0.09374
 C1552 C 0.21884 0.80418 0.11290
 C1553 C 0.21607 0.79269 0.13672
 C1554 C 0.22671 0.76724 0.14205
 C1555 C 0.23847 0.75262 0.12241
 C1556 C 0.24130 0.76422 0.09836
 H1557 H 0.23631 0.79704 0.00606
 H1558 H 0.25802 0.86654 0.05040
 H1559 H 0.20698 0.80441 0.15157
 H1560 H 0.24726 0.73316 0.12618
 H1561 H 0.25015 0.84164 0.08893
 H1562 H 0.21119 0.82423 0.10979
 H1563 H 0.22890 0.77232 0.04468
 H1564 H 0.25184 0.75322 0.08394
 C1565 C 0.74240 0.31132 0.57246
 C1566 C 0.73652 0.29871 0.54931
 C1567 C 0.73915 0.31252 0.52639
 C1568 C 0.74816 0.33929 0.52596
 C1569 C 0.75206 0.35217 0.54952
 C1570 C 0.74972 0.33834 0.57228
 C1571 C 0.74217 0.29656 0.59691
 C1572 C 0.76376 0.29953 0.61384
 C1573 C 0.76310 0.28863 0.63801
 C1574 C 0.74080 0.27442 0.64617
 C1575 C 0.71975 0.26981 0.62881
 C1576 C 0.72045 0.28082 0.60425
 H1577 H 0.73368 0.30214 0.50912
 H1578 H 0.75734 0.37309 0.55026
 H1579 H 0.77988 0.29213 0.65075
 H1580 H 0.70232 0.25899 0.63461
 H1581 H 0.75362 0.34886 0.58989
 H1582 H 0.78101 0.31095 0.60856
 H1583 H 0.73035 0.27804 0.54891
 H1584 H 0.70357 0.27812 0.59147
 C1585 C 0.25025 0.19951 0.56965
 C1586 C 0.25217 0.17175 0.57209
 C1587 C 0.25085 0.15533 0.55077
 C1588 C 0.24807 0.16615 0.52616
 C1589 C 0.24436 0.19414 0.52412
 C1590 C 0.24589 0.21064 0.54562
 C1591 C 0.25058 0.21614 0.59273
 C1592 C 0.27416 0.22823 0.60168
 C1593 C 0.27556 0.23908 0.62625
 C1594 C 0.25345 0.23759 0.64205
 C1595 C 0.22947 0.22710 0.63225
 C1596 C 0.22807 0.21644 0.60789
 H1597 H 0.25278 0.13394 0.55336
 H1598 H 0.23996 0.20360 0.50618
 H1599 H 0.29431 0.24683 0.63347
 H1600 H 0.21209 0.22582 0.64402
 H1601 H 0.24323 0.23202 0.54357
 H1602 H 0.29182 0.22785 0.59024
 H1603 H 0.25474 0.16276 0.59063
 H1604 H 0.20981 0.20707 0.60135
 C1605 C 0.74764 0.69927 0.06870
 C1606 C 0.73810 0.70938 0.04547
 C1607 C 0.73612 0.69268 0.02413
 C1608 C 0.74400 0.66551 0.02553
 C1609 C 0.75080 0.65520 0.04968
 C1610 C 0.75335 0.67191 0.07071
 C1611 C 0.75084 0.71656 0.09134
 C1612 C 0.72918 0.73136 0.10048
 C1613 C 0.73068 0.74319 0.12453
 C1614 C 0.75406 0.74095 0.13941
 C1615 C 0.77635 0.72791 0.12949
 C1616 C 0.77473 0.71573 0.10566
 H1617 H 0.72831 0.70121 0.00673
 H1618 H 0.75529 0.63414 0.05202
 H1619 H 0.71302 0.75249 0.13222
 H1620 H 0.79428 0.72534 0.14099
 H1621 H 0.75967 0.66341 0.08870
 H1622 H 0.71049 0.73203 0.08990
 H1623 H 0.73256 0.73026 0.04374
 H1624 H 0.79169 0.70442 0.09895
 C1625 C 0.15164 0.56570 0.24380
 C1626 C 0.12550 0.56542 0.23400
 C1627 C 0.10941 0.54291 0.23648
 C1628 C 0.11879 0.51921 0.24849
 C1629 C 0.14474 0.52028 0.25946
 C1630 C 0.16093 0.54283 0.25683
 C1631 C 0.16848 0.59023 0.24152
 C1632 C 0.18591 0.59768 0.26136
 C1633 C 0.20057 0.62124 0.26012
 C1634 C 0.19829 0.63842 0.23904
 C1635 C 0.18134 0.63079 0.21883
 C1636 C 0.16665 0.60699 0.22005
 H1637 H 0.08949 0.54470 0.22880
 H1638 H 0.15269 0.50359 0.27025
 H1639 H 0.21336 0.62623 0.27615
 H1640 H 0.17901 0.64344 0.20233
 H1641 H 0.18088 0.54218 0.26494
 H1642 H 0.18766 0.58576 0.27838
 H1643 H 0.11711 0.58293 0.22477
 H1644 H 0.15376 0.60178 0.20416
 C1645 C 0.65350 0.07406 0.74380
 C1646 C 0.62590 0.07562 0.74732
 C1647 C 0.61083 0.05243 0.75028
 C1648 C 0.62271 0.02668 0.74990
 C1649 C 0.65043 0.02533 0.74565
 C1650 C 0.66556 0.04862 0.74311
 C1651 C 0.66971 0.09888 0.74145
 C1652 C 0.69379 0.10144 0.75518
 C1653 C 0.70824 0.12524 0.75455
 C1654 C 0.69932 0.14706 0.73981
 C1655 C 0.67575 0.14425 0.72526
 C1656 C 0.66097 0.12050 0.72628
 H1657 H 0.58954 0.05455 0.75264
 H1658 H 0.66061 0.00641 0.74346
 H1659 H 0.72629 0.12672 0.76601
 H1660 H 0.66821 0.16075 0.71392
 H1661 H 0.68673 0.04669 0.73991
 H1662 H 0.70102 0.08533 0.76717
 H1663 H 0.61595 0.09487 0.74805
 H1664 H 0.64259 0.11909 0.71531
 C1665 C 0.84927 0.07617 0.25968
 C1666 C 0.86819 0.07278 0.24067
 C1667 C 0.88299 0.04907 0.23869
 C1668 C 0.87870 0.02732 0.25511
 C1669 C 0.86073 0.03160 0.27509
 C1670 C 0.84612 0.05550 0.27723
 C1671 C 0.83246 0.10091 0.26043
 C1672 C 0.82778 0.11484 0.28316
 C1673 C 0.81264 0.13867 0.28311
 C1674 C 0.80152 0.14879 0.26038
 C1675 C 0.80582 0.13435 0.23785
 C1676 C 0.82110 0.11092 0.23788
 H1677 H 0.89807 0.04831 0.22441
 H1678 H 0.85770 0.01605 0.28893
 H1679 H 0.80980 0.14922 0.30079
 H1680 H 0.79769 0.14131 0.21990
 H1681 H 0.83191 0.05758 0.29228
 H1682 H 0.83635 0.10763 0.30085
 H1683 H 0.87180 0.08874 0.22740
 H1684 H 0.82395 0.10050 0.22013
 C1685 C 0.34637 0.57585 0.75331
 C1686 C 0.36253 0.56827 0.77411
 C1687 C 0.37866 0.54536 0.77324
 C1688 C 0.38063 0.52960 0.75097
 C1689 C 0.36263 0.53599 0.73097
 C1690 C 0.34608 0.55879 0.73197
 C1691 C 0.33062 0.60165 0.75371
 C1692 C 0.32548 0.61586 0.73117
 C1693 C 0.31171 0.64029 0.73136
 C1694 C 0.30288 0.65176 0.75412
 C1695 C 0.30804 0.63784 0.77677
 C1696 C 0.32146 0.61302 0.77654
 H1697 H 0.38952 0.54040 0.79043
 H1698 H 0.36190 0.52361 0.71413
 H1699 H 0.30836 0.65047 0.71350
 H1700 H 0.30135 0.64593 0.79461
 H1701 H 0.33307 0.56297 0.71588
 H1702 H 0.33258 0.60848 0.71324
 H1703 H 0.36329 0.58030 0.79114
 H1704 H 0.32437 0.60270 0.79435
 C1705 C 0.34999 0.43251 0.74259
 C1706 C 0.34891 0.44941 0.76397
 C1707 C 0.36415 0.47280 0.76552
 C1708 C 0.38166 0.47984 0.74609
 C1709 C 0.38046 0.46411 0.72370
 C1710 C 0.36544 0.44071 0.72223
 C1711 C 0.33589 0.40612 0.74187
 C1712 C 0.32556 0.39510 0.71907
 C1713 C 0.31293 0.37007 0.71876
 C1714 C 0.31007 0.35556 0.74127
 C1715 C 0.32066 0.36649 0.76389
 C1716 C 0.33341 0.39119 0.76417
 H1717 H 0.36301 0.48501 0.78242
 H1718 H 0.39118 0.46945 0.70696
 H1719 H 0.30485 0.36239 0.70105
 H1720 H 0.31915 0.35587 0.78163
 H1721 H 0.36658 0.42871 0.70521
 H1722 H 0.32679 0.40598 0.70147
 H1723 H 0.33636 0.44452 0.77970
 H1724 H 0.34166 0.39840 0.78197
 C1725 C 0.84569 0.92837 0.24702
 C1726 C 0.83360 0.95374 0.24623
 C1727 C 0.84892 0.97696 0.24831
 C1728 C 0.87684 0.97556 0.25240
 C1729 C 0.88875 0.94983 0.25257
 C1730 C 0.87347 0.92668 0.24992
 C1731 C 0.82933 0.90374 0.24517
 C1732 C 0.83576 0.88316 0.22809
 C1733 C 0.82063 0.85972 0.22693
 C1734 C 0.79918 0.85612 0.24327
 C1735 C 0.79275 0.87677 0.26026
 C1736 C 0.80744 0.90043 0.26098
 H1737 H 0.83859 0.99583 0.24617
 H1738 H 0.91014 0.94769 0.25484
 H1739 H 0.82621 0.84406 0.21382
 H1740 H 0.77634 0.87459 0.27308
 H1741 H 0.88335 0.90737 0.25054
 H1742 H 0.85248 0.88526 0.21564
 H1743 H 0.81224 0.95560 0.24342
 H1744 H 0.80215 0.91589 0.27440
 C1745 C 0.64768 0.92459 0.75760
 C1746 C 0.62808 0.92833 0.73857
 C1747 C 0.61437 0.95264 0.73601
 C1748 C 0.62030 0.97466 0.75193
 C1749 C 0.63890 0.97017 0.77200
 C1750 C 0.65255 0.94566 0.77465
 C1751 C 0.66348 0.89911 0.75862
 C1752 C 0.66929 0.88563 0.78151
 C1753 C 0.68360 0.86122 0.78158
 C1754 C 0.69270 0.85005 0.75879
 C1755 C 0.68703 0.86393 0.73609
 C1756 C 0.67269 0.88791 0.73602
 H1757 H 0.59876 0.95372 0.72169
 H1758 H 0.64307 0.98592 0.78557
 H1759 H 0.68758 0.85118 0.79940
 H1760 H 0.69357 0.85622 0.71806
 H1761 H 0.66731 0.94338 0.78972
 H1762 H 0.66237 0.89371 0.79926
 H1763 H 0.62310 0.91219 0.72567
 H1764 H 0.66899 0.89788 0.71811
 C1765 C 0.15255 0.42025 0.25356
 C1766 C 0.15895 0.44209 0.23813
 C1767 C 0.14241 0.46486 0.23670
 C1768 C 0.11882 0.46717 0.25090
 C1769 C 0.11257 0.44472 0.26603
 C1770 C 0.12901 0.42197 0.26732
 C1771 C 0.16975 0.39548 0.25469
 C1772 C 0.17255 0.38015 0.27703
 C1773 C 0.18781 0.35640 0.27753
 C1774 C 0.20082 0.34736 0.25573
 C1775 C 0.19829 0.36295 0.23358
 C1776 C 0.18302 0.38647 0.23306
 H1777 H 0.14842 0.48097 0.22450
 H1778 H 0.09500 0.44403 0.27728
 H1779 H 0.18920 0.34501 0.29491
 H1780 H 0.20779 0.35678 0.21627
 H1781 H 0.12288 0.40542 0.27894
 H1782 H 0.16299 0.38652 0.29423
 H1783 H 0.17701 0.44182 0.22729
 H1784 H 0.18109 0.39722 0.21536
 C1785 C 0.07057 0.24948 0.82711
 C1786 C 0.05832 0.27381 0.83318
 C1787 C 0.03641 0.27422 0.84875
 C1788 C 0.02694 0.25040 0.85938
 C1789 C 0.03762 0.22589 0.85090
 C1790 C 0.05951 0.22548 0.83525
 C1791 C 0.09617 0.24937 0.81436
 C1792 C 0.11716 0.23361 0.82408
 C1793 C 0.14233 0.23534 0.81386
 C1794 C 0.14689 0.25290 0.79377
 C1795 C 0.12569 0.26828 0.78371
 C1796 C 0.10049 0.26652 0.79396
 H1797 H 0.02747 0.29332 0.85342
 H1798 H 0.02936 0.20698 0.85651
 H1799 H 0.15822 0.22311 0.82193
 H1800 H 0.12856 0.28180 0.76805
 H1801 H 0.06815 0.20644 0.82987
 H1802 H 0.11432 0.22060 0.84013
 H1803 H 0.06638 0.29259 0.82685
 H1804 H 0.08443 0.27872 0.78616
 C1805 C 0.56606 0.73771 0.32455
 C1806 C 0.55546 0.71607 0.33754
 C1807 C 0.53355 0.71986 0.35292
 C1808 C 0.52263 0.74567 0.35637
 C1809 C 0.53222 0.76672 0.34153
 C1810 C 0.55387 0.76287 0.32608
 C1811 C 0.59115 0.73504 0.31114
 C1812 C 0.59398 0.74744 0.28764
 C1813 C 0.61901 0.74975 0.27727
 C1814 C 0.64155 0.73955 0.29023
 C1815 C 0.63846 0.72561 0.31298
 C1816 C 0.61335 0.72341 0.32341
 H1817 H 0.52539 0.70252 0.36198
 H1818 H 0.52340 0.78650 0.34261
 H1819 H 0.62075 0.76008 0.25940
 H1820 H 0.65551 0.71739 0.32323
 H1821 H 0.56174 0.77988 0.31613
 H1822 H 0.57694 0.75626 0.27781
 H1823 H 0.56428 0.69633 0.33593
 H1824 H 0.61153 0.71402 0.34174
 C1825 C 0.56605 0.26433 0.17200
 C1826 C 0.55444 0.28546 0.15835
 C1827 C 0.53290 0.28081 0.14202
 C1828 C 0.52322 0.25464 0.13830
 C1829 C 0.53386 0.23404 0.15368
 C1830 C 0.55520 0.23874 0.17005
 C1831 C 0.59092 0.26809 0.18643
 C1832 C 0.59464 0.25572 0.21001
 C1833 C 0.61983 0.25467 0.22131
 C1834 C 0.64163 0.26601 0.20915
 C1835 C 0.63747 0.28002 0.18640
 C1836 C 0.61226 0.28103 0.17511
 H1837 H 0.52396 0.29787 0.13259
 H1838 H 0.52601 0.21399 0.15241
 H1839 H 0.62234 0.24418 0.23911
 H1840 H 0.65385 0.28923 0.17674
 H1841 H 0.56388 0.22209 0.18045
 H1842 H 0.57825 0.24594 0.21915
 H1843 H 0.56218 0.30552 0.16021
 H1844 H 0.60981 0.29050 0.15679
 C1845 C 0.06435 0.76724 0.67500
 C1846 C 0.05346 0.74164 0.67338
 C1847 C 0.03191 0.73685 0.65730
 C1848 C 0.02119 0.75733 0.64185
 C1849 C 0.03085 0.78353 0.64531
 C1850 C 0.05252 0.78831 0.66142
 C1851 C 0.08969 0.77097 0.68863
 C1852 C 0.11055 0.78391 0.67654
 C1853 C 0.13617 0.78276 0.68685
 C1854 C 0.14125 0.76858 0.70934
 C1855 C 0.11999 0.75721 0.72229
 C1856 C 0.09435 0.75844 0.71199
 H1857 H 0.02399 0.71681 0.65629
 H1858 H 0.02179 0.80050 0.63581
 H1859 H 0.15213 0.79199 0.67660
 H1860 H 0.12324 0.74660 0.73994
 H1861 H 0.06027 0.80838 0.66306
 H1862 H 0.10739 0.79345 0.65834
 H1863 H 0.06229 0.72504 0.68374
 H1864 H 0.07835 0.74864 0.72171
 C1865 C 0.93377 0.73945 0.67790
 C1866 C 0.94522 0.76458 0.67485
 C1867 C 0.96591 0.76775 0.65820
 C1868 C 0.97504 0.74606 0.64356
 C1869 C 0.96547 0.72032 0.64903
 C1870 C 0.94470 0.71715 0.66574
 C1871 C 0.90835 0.73745 0.69079
 C1872 C 0.88724 0.72404 0.67875
 C1873 C 0.86170 0.72614 0.68814
 C1874 C 0.85691 0.74176 0.70971
 C1875 C 0.87832 0.75413 0.72247
 C1876 C 0.90390 0.75196 0.71306
 H1877 H 0.97403 0.78753 0.65576
 H1878 H 0.97367 0.70256 0.64038
 H1879 H 0.84565 0.71614 0.67805
 H1880 H 0.87528 0.76592 0.73940
 H1881 H 0.93664 0.69741 0.66863
 H1882 H 0.89018 0.71310 0.66129
 H1883 H 0.93720 0.78209 0.68418
 H1884 H 0.92006 0.76229 0.72267
 C1885 C 0.43598 0.23224 0.17294
 C1886 C 0.44704 0.21101 0.15932
 C1887 C 0.46782 0.21558 0.14290
 C1888 C 0.47724 0.24175 0.13911
 C1889 C 0.46766 0.26233 0.15485
 C1890 C 0.44701 0.25774 0.17125
 C1891 C 0.41125 0.22877 0.18671
 C1892 C 0.40785 0.24141 0.21012
 C1893 C 0.38277 0.24276 0.22069
 C1894 C 0.36076 0.23140 0.20798
 C1895 C 0.36457 0.21720 0.18537
 C1896 C 0.38967 0.21593 0.17479
 H1897 H 0.47622 0.19850 0.13329
 H1898 H 0.47550 0.28236 0.15357
 H1899 H 0.38053 0.25340 0.23841
 H1900 H 0.34802 0.20803 0.17530
 H1901 H 0.43882 0.27446 0.18168
 H1902 H 0.42439 0.25116 0.21971
 H1903 H 0.43927 0.19099 0.16107
 H1904 H 0.39186 0.20630 0.15655
 C1905 C 0.43386 0.76115 0.31878
 C1906 C 0.44575 0.73611 0.32288
 C1907 C 0.46681 0.73343 0.34005
 C1908 C 0.47592 0.75555 0.35422
 C1909 C 0.46566 0.78108 0.34801
 C1910 C 0.44454 0.78377 0.33075
 C1911 C 0.40845 0.76282 0.30472
 C1912 C 0.38713 0.77690 0.31530
 C1913 C 0.36158 0.77417 0.30516
 C1914 C 0.35696 0.75724 0.28432
 C1915 C 0.37861 0.74454 0.27273
 C1916 C 0.40421 0.74734 0.28287
 H1917 H 0.47539 0.71375 0.34312
 H1918 H 0.47371 0.79906 0.35642
 H1919 H 0.34536 0.78460 0.31425
 H1920 H 0.37572 0.73176 0.25635
 H1921 H 0.43613 0.80342 0.32715
 H1922 H 0.38989 0.78873 0.33233
 H1923 H 0.43792 0.71832 0.31382
 H1924 H 0.42053 0.73659 0.27427
 C1925 C 0.93645 0.26459 0.82558
 C1926 C 0.94687 0.28634 0.83912
 C1927 C 0.96871 0.28275 0.85541
 C1928 C 0.97981 0.25706 0.85918
 C1929 C 0.97087 0.23607 0.84344
 C1930 C 0.94919 0.23966 0.82716
 C1931 C 0.91065 0.26671 0.81229
 C1932 C 0.90642 0.25349 0.78916
 C1933 C 0.88076 0.25092 0.77918
 C1934 C 0.85899 0.26166 0.79219
 C1935 C 0.86348 0.27629 0.81456
 C1936 C 0.88913 0.27876 0.82455
 H1937 H 0.97658 0.30009 0.86513
 H1938 H 0.98007 0.21646 0.84453
 H1939 H 0.87795 0.24000 0.76162
 H1940 H 0.84714 0.28508 0.82485
 H1941 H 0.94160 0.22256 0.81680
 H1942 H 0.92288 0.24432 0.77929
 H1943 H 0.93775 0.30597 0.83746
 H1944 H 0.89192 0.28877 0.84260
 C1945 C 0.56243 1.01461 0.67717
 C1946 C 0.58929 1.00649 0.67857
 C1947 C 0.60203 1.00180 0.70187
 C1948 C 0.58831 1.00415 0.72485
 C1949 C 0.56129 1.01246 0.72338
 C1950 C 0.54852 1.01731 0.69990
 C1951 C 0.54947 1.02035 0.65196
 C1952 C 0.52295 1.01293 0.64638
 C1953 C 0.51238 1.01515 0.62159
 C1954 C 0.52822 1.02464 0.60198
 C1955 C 0.55398 1.03369 0.60791
 C1956 C 0.56435 1.03186 0.63257
 H1957 H 0.62296 0.99641 0.70202
 H1958 H 0.55006 1.01624 0.74027
 H1959 H 0.49260 1.00767 0.61742
 H1960 H 0.56659 1.04113 0.59313
 H1961 H 0.52797 1.02402 0.69961
 H1962 H 0.51088 1.00399 0.66080
 H1963 H 0.60065 1.00373 0.66154
 H1964 H 0.58447 1.03865 0.63623
 C1965 C 0.05278 0.50410 1.18035
 C1966 C 0.07672 0.48945 1.18009
 C1967 C 0.09106 0.48413 1.20250
 C1968 C 0.08212 0.49336 1.22620
 C1969 C 0.05717 0.50713 1.22613
 C1970 C 0.04267 0.51208 1.20367
 C1971 C 0.03985 0.51267 1.15610
 C1972 C 0.01265 0.50822 1.15077
 C1973 C 0.00197 0.51297 1.12634
 C1974 C 0.01835 0.52244 1.10709
 C1975 C 0.04482 0.52918 1.11328
 C1976 C 0.05544 0.52426 1.13740
 H1977 H 0.10974 0.47373 1.20063
 H1978 H 0.04970 0.51623 1.24319
 H1979 H -0.01835 0.50719 1.12198
 H1980 H 0.05791 0.53649 1.09882
 H1981 H 0.02441 0.52370 1.20440
 H1982 H 0.00016 0.49947 1.16498
 H1983 H 0.08482 0.48276 1.16228
 H1984 H 0.07627 0.52850 1.14117
 C1985 C -0.05853 -0.00705 1.18435
 C1986 C -0.04608 -0.01154 1.20792
 C1987 C -0.06054 -0.00905 1.23028
 C1988 C -0.08789 -0.00161 1.22968
 C1989 C -0.10049 0.00066 1.20566
 C1990 C -0.08597 -0.00143 1.18344
 C1991 C -0.04308 -0.00639 1.16066
 C1992 C -0.04587 0.01590 1.14488
 C1993 C -0.03411 0.01620 1.12128
 C1994 C -0.01938 -0.00589 1.11253
 C1995 C -0.01500 -0.02767 1.12889
 C1996 C -0.02675 -0.02786 1.15293
 H1997 H -0.05010 -0.01331 1.24789
 H1998 H -0.12168 0.00473 1.20416
 H1999 H -0.03746 0.03351 1.10934
 H2000 H -0.00381 -0.04496 1.12260
 H2001 H -0.09621 0.00152 1.16541
 H2002 H -0.05782 0.03292 1.15060
 H2003 H -0.02503 -0.01637 1.20908
 H2004 H -0.02419 -0.04523 1.16493
 C2005 C 0.44957 0.50152 0.68150
 C2006 C 0.45263 0.48260 0.70078
 C2007 C 0.43786 0.48497 0.72290
 C2008 C 0.41928 0.50615 0.72625
 C2009 C 0.41901 0.52677 0.70807
 C2010 C 0.43346 0.52412 0.68576
 C2011 C 0.45953 0.49590 0.65575
 C2012 C 0.44091 0.49360 0.63585
 C2013 C 0.44920 0.48965 0.61114
 C2014 C 0.47647 0.48837 0.60536
 C2015 C 0.49528 0.48923 0.62546
 C2016 C 0.48681 0.49278 0.65058
 H2017 H 0.43946 0.46909 0.73674
 H2018 H 0.40713 0.54463 0.71033
 H2019 H 0.43404 0.48867 0.59629
 H2020 H 0.51638 0.48846 0.62166
 H2021 H 0.43131 0.53932 0.67129
 H2022 H 0.41978 0.49529 0.63943
 H2023 H 0.46501 0.46505 0.69801
 H2024 H 0.50151 0.49417 0.66579
 C2025 C 0.45102 0.50611 -0.18229
 C2026 C 0.45149 0.52688 -0.20004
 C2027 C 0.43617 0.52546 -0.22240
 C2028 C 0.41896 0.50372 -0.22736
 C2029 C 0.42060 0.48184 -0.21057
 C2030 C 0.43607 0.48321 -0.18825
 C2031 C 0.46482 0.50875 -0.15713
 C2032 C 0.47709 0.48646 -0.14555
 C2033 C 0.48648 0.48787 -0.12049
 C2034 C 0.48417 0.51165 -0.10659
 C2035 C 0.47335 0.53441 -0.11840
 C2036 C 0.46381 0.53300 -0.14351
 H2037 H 0.43656 0.54217 -0.23535
 H2038 H 0.40992 0.46358 -0.21421
 H2039 H 0.49437 0.46998 -0.11150
 H2040 H 0.47076 0.55273 -0.10774
 H2041 H 0.43555 0.46659 -0.17522
 H2042 H 0.47859 0.46762 -0.15556
 H2043 H 0.46342 0.54447 -0.19646
 H2044 H 0.45419 0.55047 -0.15171
 C2045 C -0.05580 1.00574 0.32349
 C2046 C -0.07564 0.98620 0.32106
 C2047 C -0.09135 0.98420 0.29902
 C2048 C -0.08733 1.00133 0.27829
 C2049 C -0.06798 1.02155 0.28130
 C2050 C -0.05234 1.02360 0.30345
 C2051 C -0.03955 1.00763 0.34731
 C2052 C -0.03439 1.03246 0.35901
 C2053 C -0.02266 1.03358 0.38336
 C2054 C -0.01586 1.00990 0.39615
 C2055 C -0.01937 0.98532 0.38380
 C2056 C -0.03089 0.98419 0.35960
 H2057 H -0.10700 0.96954 0.29877
 H2058 H -0.06488 1.03576 0.26624
 H2059 H -0.02067 1.05269 0.39284
 H2060 H -0.01454 0.96683 0.39353
 H2061 H -0.03740 1.03903 0.30481
 H2062 H -0.04096 1.05087 0.35007
 H2063 H -0.07954 0.97278 0.33656
 H2064 H -0.03407 0.96482 0.35092
 C2065 C 0.05826 0.48902 0.32221
 C2066 C 0.04754 0.47734 0.30021
 C2067 C 0.06055 0.47975 0.27709
 C2068 C 0.08449 0.49447 0.27497
 C2069 C 0.09436 0.50696 0.29722
 C2070 C 0.08146 0.50431 0.32030
 C2071 C 0.04670 0.48388 0.34749
 C2072 C 0.06378 0.47731 0.36789
 C2073 C 0.05402 0.47503 0.39228
 C2074 C 0.02687 0.47931 0.39710
 C2075 C 0.00928 0.48401 0.37654
 C2076 C 0.01915 0.48621 0.35184
 H2077 H 0.05264 0.46863 0.26108
 H2078 H 0.11261 0.51816 0.29737
 H2079 H 0.06804 0.47108 0.40770
 H2080 H -0.01168 0.48761 0.37974
 H2081 H 0.09006 0.51383 0.33695
 H2082 H 0.08494 0.47460 0.36507
 H2083 H 0.02991 0.46511 0.30113
 H2084 H 0.00549 0.49106 0.33638
 C2085 C 0.55587 -0.00505 -0.18149
 C2086 C 0.57608 0.01414 -0.18282
 C2087 C 0.59123 0.01687 -0.20459
 C2088 C 0.58631 0.00092 -0.22625
 C2089 C 0.56629 -0.01872 -0.22455
 C2090 C 0.55126 -0.02159 -0.20260
 C2091 C 0.54041 -0.00788 -0.15774
 C2092 C 0.53514 -0.03312 -0.14717
 C2093 C 0.52419 -0.03516 -0.12289
 C2094 C 0.51828 -0.01200 -0.10896
 C2095 C 0.52191 0.01303 -0.12025
 C2096 C 0.53267 0.01507 -0.14432
 H2097 H 0.60735 0.03102 -0.20386
 H2098 H 0.56246 -0.03210 -0.24031
 H2099 H 0.52206 -0.05466 -0.11437
 H2100 H 0.51768 0.03117 -0.10979
 H2101 H 0.53599 -0.03670 -0.20217
 H2102 H 0.54098 -0.05120 -0.15697
 H2103 H 0.58082 0.02661 -0.16659
 H2104 H 0.53591 0.03477 -0.15206
 C2105 C 0.67218 0.59698 0.00676
 C2106 C 0.67046 0.62460 0.00258
 C2107 C 0.69334 0.64030 0.00320
 C2108 C 0.71893 0.62869 0.00662
 C2109 C 0.72009 0.60155 0.01391
 C2110 C 0.69709 0.58584 0.01355
 C2111 C 0.64803 0.58003 0.00398
 C2112 C 0.64264 0.56012 0.02179
 C2113 C 0.61929 0.54512 0.01975
 C2114 C 0.60087 0.54941 -0.00031
 C2115 C 0.60672 0.56868 -0.01864
 C2116 C 0.62996 0.58391 -0.01643
 H2117 H 0.69126 0.66143 -0.00075
 H2118 H 0.73869 0.59210 0.01952
 H2119 H 0.61545 0.53043 0.03421
 H2120 H 0.59292 0.57262 -0.03422
 H2121 H 0.69896 0.56476 0.01782
 H2122 H 0.65608 0.55670 0.03775
 H2123 H 0.65138 0.63405 -0.00151
 H2124 H 0.63377 0.59884 -0.03067
 C2125 C 0.17670 1.09712 0.50593
 C2126 C 0.17506 1.12505 0.50444
 C2127 C 0.19810 1.14055 0.50565
 C2128 C 0.22375 1.12860 0.50698
 C2129 C 0.22498 1.10075 0.51131
 C2130 C 0.20181 1.08524 0.51045
 C2131 C 0.15223 1.08059 0.50295
 C2132 C 0.14755 1.05933 0.51951
 C2133 C 0.12395 1.04473 0.51756
 C2134 C 0.10451 1.05073 0.49879
 C2135 C 0.10961 1.07132 0.48158
 C2136 C 0.13313 1.08622 0.48376
 H2137 H 0.19605 1.16200 0.50366
 H2138 H 0.24366 1.09056 0.51505
 H2139 H 0.12068 1.02898 0.53115
 H2140 H 0.09499 1.07659 0.46705
 H2141 H 0.20366 1.06380 0.51259
 H2142 H 0.16177 1.05454 0.53453
 H2143 H 0.15592 1.13494 0.50204
 H2144 H 0.13633 1.10229 0.47051
 C2145 C 0.17953 -0.09856 1.01192
 C2146 C 0.17768 -0.12574 1.00552
 C2147 C 0.20064 -0.14105 1.00094
 C2148 C 0.22639 -0.12981 1.00258
 C2149 C 0.22800 -0.10259 1.00971
 C2150 C 0.20499 -0.08719 1.01384
 C2151 C 0.15502 -0.08195 1.01591
 C2152 C 0.15246 -0.05673 1.00449
 C2153 C 0.12879 -0.04190 1.00629
 C2154 C 0.10715 -0.05156 1.02001
 C2155 C 0.11005 -0.07620 1.03250
 C2156 C 0.13365 -0.09137 1.03026
 H2157 H 0.19834 -0.16202 0.99641
 H2158 H 0.24699 -0.09306 1.01296
 H2159 H 0.12710 -0.02308 0.99628
 H2160 H 0.09360 -0.08435 1.04287
 H2161 H 0.20715 -0.06642 1.01922
 H2162 H 0.16839 -0.04893 0.99320
 H2163 H 0.15838 -0.13514 1.00379
 H2164 H 0.13509 -0.11064 1.03946
 C2165 C 0.67772 0.40595 0.50811
 C2166 C 0.70302 0.41767 0.50993
 C2167 C 0.72627 0.40215 0.50753
 C2168 C 0.72498 0.37446 0.50218
 C2169 C 0.69937 0.36293 0.50074
 C2170 C 0.67621 0.37836 0.50365
 C2171 C 0.65295 0.42246 0.51038
 C2172 C 0.63190 0.41425 0.52571
 C2173 C 0.60804 0.42911 0.52659
 C2174 C 0.60450 0.45216 0.51170
 C2175 C 0.62577 0.46058 0.49678
 C2176 C 0.64977 0.44611 0.49635
 H2177 H 0.74512 0.41200 0.51055
 H2178 H 0.69732 0.34168 0.49747
 H2179 H 0.59195 0.42193 0.53804
 H2180 H 0.62366 0.47821 0.48504
 H2181 H 0.65701 0.36872 0.50210
 H2182 H 0.63383 0.39619 0.53684
 H2183 H 0.70482 0.43883 0.51384
 H2184 H 0.66553 0.45287 0.48427
 C2185 C -0.17392 0.39907 0.49387
 C2186 C -0.19561 0.40418 0.47737
 C2187 C -0.21978 0.39059 0.48009
 C2188 C -0.22329 0.37168 0.49964
 C2189 C -0.20068 0.36550 0.51497
 C2190 C -0.17671 0.37927 0.51243
 C2191 C -0.14874 0.41483 0.49272
 C2192 C -0.13702 0.42437 0.51526
 C2193 C -0.11328 0.43866 0.51503
 C2194 C -0.10010 0.44385 0.49223
 C2195 C -0.11184 0.43447 0.46949
 C2196 C -0.13606 0.42031 0.46972
 H2197 H -0.23602 0.39505 0.46696
 H2198 H -0.20104 0.34966 0.52880
 H2199 H -0.10510 0.44537 0.53304
 H2200 H -0.10234 0.43801 0.45160
 H2201 H -0.16008 0.37416 0.52491
 H2202 H -0.14637 0.42089 0.53325
 H2203 H -0.19408 0.41911 0.46269
 H2204 H -0.14457 0.41315 0.45200
 C2205 C 0.32724 -0.10490 -0.00577
 C2206 C 0.30543 -0.09939 -0.02200
 C2207 C 0.28130 -0.11304 -0.01945
 C2208 C 0.27795 -0.13250 -0.00038
 C2209 C 0.30051 -0.13882 0.01494
 C2210 C 0.32449 -0.12500 0.01253
 C2211 C 0.35253 -0.08932 -0.00714
 C2212 C 0.36517 -0.08070 0.01530
 C2213 C 0.38885 -0.06630 0.01471
 C2214 C 0.40100 -0.06007 -0.00837
 C2215 C 0.38839 -0.06861 -0.03099
 C2216 C 0.36429 -0.08291 -0.03038
 H2217 H 0.26499 -0.10827 -0.03240
 H2218 H 0.30011 -0.15484 0.02858
 H2219 H 0.39774 -0.06024 0.03264
 H2220 H 0.39710 -0.06426 -0.04909
 H2221 H 0.34117 -0.13036 0.02485
 H2222 H 0.35656 -0.08488 0.03349
 H2223 H 0.30683 -0.08415 -0.03640
 H2224 H 0.35511 -0.08937 -0.04805
 C2225 C 0.32413 1.10033 0.50346
 C2226 C 0.30280 1.09381 0.48689
 C2227 C 0.27926 1.10914 0.48631
 C2228 C 0.27556 1.13072 0.50318
 C2229 C 0.29793 1.13829 0.51827
 C2230 C 0.32149 1.12318 0.51866
 C2231 C 0.34941 1.08413 0.50424
 C2232 C 0.36453 1.08094 0.52689
 C2233 C 0.38874 1.06659 0.52722
 C2234 C 0.39834 1.05485 0.50494
 C2235 C 0.38293 1.05769 0.48248
 C2236 C 0.35901 1.07214 0.48212
 H2237 H 0.26342 1.10354 0.47319
 H2238 H 0.29771 1.15614 0.52979
 H2239 H 0.39999 1.06485 0.54484
 H2240 H 0.38960 1.04920 0.46481
 H2241 H 0.33790 1.12982 0.53062
 H2242 H 0.35763 1.08950 0.54445
 H2243 H 0.30404 1.07657 0.47455
 H2244 H 0.34842 1.07448 0.46421
 C2245 C -0.18209 0.59799 1.00244
 C2246 C -0.20446 0.59051 0.98763
 C2247 C -0.22743 0.60665 0.98660
 C2248 C -0.22946 0.62999 1.00152
 C2249 C -0.20588 0.63874 1.01400
 C2250 C -0.18287 0.62280 1.01485
 C2251 C -0.15782 0.58045 1.00447
 C2252 C -0.14237 0.57917 1.02705
 C2253 C -0.11903 0.56353 1.02854
 C2254 C -0.11064 0.54860 1.00753
 C2255 C -0.12653 0.54937 0.98523
 C2256 C -0.14963 0.56509 0.98370
 H2257 H -0.24419 0.60019 0.97500
 H2258 H -0.20503 0.65792 1.02342
 H2259 H -0.10735 0.56350 1.04599
 H2260 H -0.12076 0.53835 0.96851
 H2261 H -0.16553 0.63010 1.02514
 H2262 H -0.14828 0.59033 1.04363
 H2263 H -0.20457 0.57185 0.97726
 H2264 H -0.16061 0.56578 0.96588
 C2265 C 0.00952 0.68269 0.57524
 C2266 C 0.03154 0.69469 0.58707
 C2267 C 0.02803 0.71690 0.60252
 C2268 C 0.00221 0.72694 0.60720
 C2269 C -0.01939 0.71623 0.59322
 C2270 C -0.01586 0.69409 0.57777
 C2271 C 0.01240 0.65702 0.56219
 C2272 C -0.00163 0.65224 0.53948
 C2273 C -0.00250 0.62661 0.52938
 C2274 C 0.01066 0.60540 0.54189
 C2275 C 0.02597 0.61057 0.56385
 C2276 C 0.02680 0.63622 0.57394
 H2277 H 0.04565 0.72598 0.61072
 H2278 H -0.03926 0.72447 0.59510
 H2279 H -0.01411 0.62334 0.51218
 H2280 H 0.03656 0.59468 0.57374
 H2281 H -0.03317 0.68522 0.56867
 H2282 H -0.01260 0.66816 0.53001
 H2283 H 0.05142 0.68665 0.58458
 H2284 H 0.03755 0.63949 0.59164
 C2285 C 0.51350 0.18099 0.07052
 C2286 C 0.53519 0.19264 0.08321
 C2287 C 0.53129 0.21484 0.09863
 C2288 C 0.50537 0.22506 0.10245
 C2289 C 0.48429 0.21488 0.08740
 C2290 C 0.48823 0.19286 0.07191
 C2291 C 0.51628 0.15494 0.05815
 C2292 C 0.50318 0.15006 0.03500
 C2293 C 0.50124 0.12415 0.02578
 C2294 C 0.51243 0.10274 0.03960
 C2295 C 0.52703 0.10788 0.06198
 C2296 C 0.52891 0.13386 0.07122
 H2297 H 0.54865 0.22354 0.10767
 H2298 H 0.46439 0.22322 0.08870
 H2299 H 0.49039 0.12088 0.00814
 H2300 H 0.53610 0.09179 0.07285
 H2301 H 0.47118 0.18426 0.06212
 H2302 H 0.49359 0.16618 0.02454
 H2303 H 0.55502 0.18420 0.08161
 H2304 H 0.53891 0.13724 0.08929
 C2305 C -0.00511 0.18151 0.92404
 C2306 C 0.01993 0.19288 0.92072
 C2307 C 0.02242 0.21530 0.90567
 C2308 C 0.00005 0.22640 0.89292
 C2309 C -0.02532 0.21594 0.89799
 C2310 C -0.02778 0.19338 0.91298
 C2311 C -0.00714 0.15645 0.93796
 C2312 C -0.02134 0.13511 0.92725
 C2313 C -0.02020 0.11012 0.93861
 C2314 C -0.00482 0.10622 0.96080
 C2315 C 0.00828 0.12801 0.97213
 C2316 C 0.00712 0.15295 0.96076
 H2317 H 0.04201 0.22379 0.90361
 H2318 H -0.04338 0.22518 0.89060
 H2319 H -0.03070 0.09374 0.92958
 H2320 H 0.01997 0.12571 0.98944
 H2321 H -0.04737 0.18524 0.91605
 H2322 H -0.03228 0.13746 0.90951
 H2323 H 0.03769 0.18404 0.92926
 H2324 H 0.01791 0.16938 0.96941
 C2325 C 0.48542 0.68687 0.42620
 C2326 C 0.46372 0.69797 0.41283
 C2327 C 0.46759 0.71902 0.39625
 C2328 C 0.49348 0.72865 0.39200
 C2329 C 0.51455 0.71918 0.40763
 C2330 C 0.51067 0.69824 0.42422
 C2331 C 0.48272 0.66156 0.43966
 C2332 C 0.49615 0.65747 0.46282
 C2333 C 0.49835 0.63192 0.47284
 C2334 C 0.48710 0.61012 0.45980
 C2335 C 0.47208 0.61458 0.43750
 C2336 C 0.46995 0.64014 0.42748
 H2337 H 0.45024 0.72744 0.38672
 H2338 H 0.53437 0.72731 0.40616
 H2339 H 0.50960 0.62916 0.49035
 H2340 H 0.46290 0.59822 0.42721
 H2341 H 0.52772 0.69006 0.43450
 H2342 H 0.50587 0.67388 0.47259
 H2343 H 0.44391 0.68994 0.41481
 H2344 H 0.45973 0.64286 0.40941
 C2345 C 0.51104 0.81839 0.42437
 C2346 C 0.48556 0.80782 0.42037
 C2347 C 0.48195 0.78624 0.40415
 C2348 C 0.50357 0.77534 0.39088
 C2349 C 0.52942 0.78465 0.39688
 C2350 C 0.53302 0.80621 0.41313
 C2351 C 0.51416 0.84356 0.43821
 C2352 C 0.52907 0.86412 0.42762
 C2353 C 0.52853 0.88953 0.43819
 C2354 C 0.51299 0.89472 0.45948
 C2355 C 0.49944 0.87368 0.47100
 C2356 C 0.50000 0.84826 0.46039
 H2357 H 0.46205 0.77844 0.40136
 H2358 H 0.54703 0.77536 0.38920
 H2359 H 0.53944 0.90527 0.42908
 H2360 H 0.48760 0.87701 0.48766
 H2361 H 0.55296 0.81360 0.41671
 H2362 H 0.53994 0.86094 0.41034
 H2363 H 0.46829 0.81685 0.42900
 H2364 H 0.48866 0.83249 0.46899
 C2365 C 0.01316 0.31219 0.93582
 C2366 C 0.03564 0.30095 0.92457
 C2367 C 0.03270 0.28149 0.90598
 C2368 C 0.00710 0.27329 0.89779
 C2369 C -0.01502 0.28224 0.91155
 C2370 C -0.01212 0.30192 0.92996
 C2371 C 0.01547 0.33700 0.95052
 C2372 C -0.00089 0.34175 0.97129
 C2373 C -0.00308 0.36739 0.98133
 C2374 C 0.01106 0.38853 0.97065
 C2375 C 0.02909 0.38322 0.95128
 C2376 C 0.03123 0.35767 0.94126
 H2377 H 0.05058 0.27317 0.89791
 H2378 H -0.03477 0.27474 0.90730
 H2379 H -0.01679 0.37084 0.99659
 H2380 H 0.04064 0.39902 0.94300
 H2381 H -0.02983 0.31007 0.93856
 H2382 H -0.01291 0.32595 0.97894
 H2383 H 0.05544 0.30787 0.92958
 H2384 H 0.04384 0.35460 0.92509
 C2385 C 0.48076 0.31489 0.07085
 C2386 C 0.50629 0.30340 0.07152
 C2387 C 0.51175 0.28169 0.08706
 C2388 C 0.49202 0.27143 0.10286
 C2389 C 0.46572 0.28138 0.09994
 C2390 C 0.46031 0.30330 0.08451
 C2391 C 0.47664 0.34058 0.05815
 C2392 C 0.46537 0.36201 0.07148
 C2393 C 0.46711 0.38786 0.06209
 C2394 C 0.48025 0.39247 0.03933
 C2395 C 0.48949 0.37068 0.02505
 C2396 C 0.48769 0.34490 0.03441
 H2397 H 0.53181 0.27355 0.08768
 H2398 H 0.44918 0.27260 0.10960
 H2399 H 0.45949 0.40428 0.07328
 H2400 H 0.49907 0.37358 0.00707
 H2401 H 0.44029 0.31152 0.08356
 H2402 H 0.45690 0.35903 0.08995
 H2403 H 0.52240 0.31204 0.06104
 H2404 H 0.49614 0.32848 0.02374
 C2405 C -0.01950 0.81698 0.57367
 C2406 C -0.04044 0.80601 0.58714
 C2407 C -0.03577 0.78404 0.60271
 C2408 C -0.00971 0.77357 0.60603
 C2409 C 0.01037 0.78296 0.59016
 C2410 C 0.00563 0.80463 0.57441
 C2411 C -0.02248 0.84304 0.56147
 C2412 C -0.01113 0.84732 0.53787
 C2413 C -0.00794 0.87315 0.52909
 C2414 C -0.01615 0.89507 0.54378
 C2415 C -0.02949 0.89065 0.56646
 C2416 C -0.03258 0.86472 0.57529
 H2417 H -0.05257 0.77579 0.61239
 H2418 H 0.03022 0.77434 0.59104
 H2419 H 0.00176 0.87593 0.51116
 H2420 H -0.03635 0.90719 0.57794
 H2421 H 0.02207 0.81271 0.56398
 H2422 H -0.00350 0.83074 0.52687
 H2423 H -0.06018 0.81487 0.58610
 H2424 H -0.04119 0.86175 0.59370
 C2425 C 0.25612 0.30659 0.07211
 C2426 C 0.25380 0.33450 0.07359
 C2427 C 0.24887 0.34966 0.05194
 C2428 C 0.24647 0.33756 0.02783
 C2429 C 0.24572 0.30934 0.02686
 C2430 C 0.25093 0.29408 0.04869
 C2431 C 0.26386 0.29112 0.09519
 C2432 C 0.28254 0.30179 0.11258
 C2433 C 0.28658 0.29016 0.13632
 C2434 C 0.27257 0.26725 0.14296
 C2435 C 0.25580 0.25502 0.12488
 C2436 C 0.25141 0.26690 0.10112
 H2437 H 0.24847 0.37122 0.05376
 H2438 H 0.24168 0.29875 0.00942
 H2439 H 0.29941 0.30001 0.15011
 H2440 H 0.24436 0.23762 0.12990
 H2441 H 0.25167 0.27253 0.04707
 H2442 H 0.29309 0.31996 0.10832
 H2443 H 0.25631 0.34479 0.09152
 H2444 H 0.23693 0.25817 0.08818
 C2445 C 0.76196 0.81095 0.56869
 C2446 C 0.76479 0.79730 0.54569
 C2447 C 0.76167 0.81091 0.52258
 C2448 C 0.75527 0.83855 0.52195
 C2449 C 0.75437 0.85220 0.54533
 C2450 C 0.75724 0.83861 0.56822
 C2451 C 0.76171 0.79670 0.59331
 C2452 C 0.74044 0.80160 0.60943
 C2453 C 0.74061 0.79116 0.63375
 C2454 C 0.76213 0.77555 0.64292
 C2455 C 0.78285 0.76912 0.62637
 C2456 C 0.78262 0.77967 0.60160
 H2457 H 0.76459 0.79961 0.50539
 H2458 H 0.75087 0.87357 0.54581
 H2459 H 0.72395 0.79595 0.64572
 H2460 H 0.79960 0.75705 0.63288
 H2461 H 0.75549 0.84975 0.58573
 H2462 H 0.72381 0.81411 0.60336
 H2463 H 0.76876 0.77600 0.54558
 H2464 H 0.79921 0.77551 0.58937
 C2465 C 0.23439 0.69254 0.56943
 C2466 C 0.23091 0.70517 0.54588
 C2467 C 0.23599 0.69135 0.52328
 C2468 C 0.24552 0.66464 0.52357
 C2469 C 0.24878 0.65222 0.54739
 C2470 C 0.24365 0.66597 0.56983
 C2471 C 0.22807 0.70646 0.59366
 C2472 C 0.21593 0.69231 0.61321
 C2473 C 0.21371 0.70349 0.63731
 C2474 C 0.22327 0.72925 0.64252
 C2475 C 0.23331 0.74443 0.62257
 C2476 C 0.23570 0.73310 0.59829
 H2477 H 0.23137 0.70145 0.50567
 H2478 H 0.25499 0.63149 0.54859
 H2479 H 0.20592 0.69136 0.65237
 H2480 H 0.24124 0.76415 0.62620
 H2481 H 0.24684 0.65563 0.58762
 H2482 H 0.20912 0.67207 0.61015
 H2483 H 0.22332 0.72546 0.54488
 H2484 H 0.24509 0.74456 0.58363
 C2485 C 0.73656 0.18870 0.07212
 C2486 C 0.74952 0.16371 0.07240
 C2487 C 0.75481 0.15008 0.04990
 C2488 C 0.74793 0.16112 0.02608
 C2489 C 0.73431 0.18601 0.02596
 C2490 C 0.72925 0.19985 0.04860
 C2491 C 0.73004 0.20217 0.09654
 C2492 C 0.73550 0.22939 0.10094
 C2493 C 0.73308 0.24050 0.12536
 C2494 C 0.72509 0.22452 0.14567
 C2495 C 0.71762 0.19799 0.14066
 C2496 C 0.72003 0.18700 0.11649
 H2497 H 0.76392 0.13045 0.05121
 H2498 H 0.72689 0.19459 0.00841
 H2499 H 0.73929 0.26088 0.12872
 H2500 H 0.71128 0.18520 0.15587
 H2501 H 0.71871 0.21880 0.04778
 H2502 H 0.74319 0.24161 0.08591
 H2503 H 0.75542 0.15449 0.09018
 H2504 H 0.71501 0.16620 0.11362
 C2505 C 0.76423 0.18649 0.93056
 C2506 C 0.77272 0.19763 0.95372
 C2507 C 0.76774 0.18457 0.97664
 C2508 C 0.75309 0.16053 0.97716
 C2509 C 0.74505 0.14947 0.95365
 C2510 C 0.75016 0.16237 0.93089
 C2511 C 0.77058 0.19903 0.90583
 C2512 C 0.77881 0.18281 0.88566
 C2513 C 0.78086 0.19323 0.86133
 C2514 C 0.77491 0.22022 0.85643
 C2515 C 0.76884 0.23710 0.87688
 C2516 C 0.76669 0.22656 0.90145
 H2517 H 0.77601 0.19298 0.99393
 H2518 H 0.73529 0.13029 0.95270
 H2519 H 0.78584 0.17978 0.84599
 H2520 H 0.76394 0.25793 0.87361
 H2521 H 0.74332 0.15319 0.91338
 H2522 H 0.78268 0.16170 0.88851
 H2523 H 0.78412 0.21590 0.95405
 H2524 H 0.76043 0.23957 0.91666
 C2525 C 0.25935 0.68877 0.42741
 C2526 C 0.27242 0.69748 0.44957
 C2527 C 0.26763 0.68503 0.47277
 C2528 C 0.24889 0.66417 0.47470
 C2529 C 0.23540 0.65616 0.45227
 C2530 C 0.24050 0.66833 0.42911
 C2531 C 0.26663 0.69911 0.40215
 C2532 C 0.27292 0.68091 0.38292
 C2533 C 0.27636 0.68960 0.35818
 C2534 C 0.27335 0.71676 0.35185
 C2535 C 0.26909 0.73536 0.37141
 C2536 C 0.26585 0.72657 0.39646
 H2537 H 0.27935 0.69105 0.48920
 H2538 H 0.22190 0.63945 0.45211
 H2539 H 0.27992 0.67476 0.34364
 H2540 H 0.26646 0.75636 0.36710
 H2541 H 0.23024 0.66115 0.41223
 H2542 H 0.27422 0.65971 0.38690
 H2543 H 0.28735 0.71291 0.44870
 H2544 H 0.26119 0.74101 0.41105
 C2545 C 0.74433 0.80594 0.42823
 C2546 C 0.76455 0.82509 0.43034
 C2547 C 0.76767 0.84059 0.45223
 C2548 C 0.75106 0.83698 0.47319
 C2549 C 0.73041 0.81803 0.47066
 C2550 C 0.72714 0.80271 0.44858
 C2551 C 0.74096 0.79030 0.40437
 C2552 C 0.71574 0.78728 0.39254
 C2553 C 0.71348 0.77640 0.36803
 C2554 C 0.73636 0.76816 0.35524
 C2555 C 0.76122 0.76952 0.36772
 C2556 C 0.76350 0.78034 0.39203
 H2557 H 0.78272 0.85587 0.45211
 H2558 H 0.71661 0.81520 0.48590
 H2559 H 0.69420 0.77613 0.35847
 H2560 H 0.77916 0.76368 0.35798
 H2561 H 0.71121 0.78828 0.44746
 H2562 H 0.69803 0.79494 0.40152
 H2563 H 0.77757 0.82871 0.41463
 H2564 H 0.78311 0.78200 0.40076
 C2565 C 0.24014 0.31448 0.93075
 C2566 C 0.26059 0.30796 0.94824
 C2567 C 0.26257 0.32141 0.97161
 C2568 C 0.24359 0.34105 0.97850
 C2569 C 0.22411 0.34818 0.95992
 C2570 C 0.22194 0.33462 0.93704
 C2571 C 0.23888 0.30273 0.90488
 C2572 C 0.23378 0.31969 0.88422
 C2573 C 0.23265 0.30966 0.85972
 C2574 C 0.23686 0.28238 0.85496
 C2575 C 0.24130 0.26501 0.87549
 C2576 C 0.24246 0.27518 0.90037
 H2577 H 0.27893 0.31641 0.98444
 H2578 H 0.21050 0.36474 0.96234
 H2579 H 0.22930 0.32354 0.84425
 H2580 H 0.24500 0.24395 0.87223
 H2581 H 0.20615 0.34047 0.92388
 H2582 H 0.23137 0.34102 0.88689
 H2583 H 0.27551 0.29312 0.94353
 H2584 H 0.24627 0.26165 0.91600
 C2585 C 0.84465 0.42638 0.75886
 C2586 C 0.83303 0.45201 0.75881
 C2587 C 0.84845 0.47482 0.75494
 C2588 C 0.87604 0.47278 0.75014
 C2589 C 0.88749 0.44685 0.75047
 C2590 C 0.87210 0.42411 0.75468
 C2591 C 0.82810 0.40207 0.76272
 C2592 C 0.83726 0.38078 0.77808
 C2593 C 0.82237 0.35724 0.78014
 C2594 C 0.79820 0.35434 0.76656
 C2595 C 0.78869 0.37598 0.75191
 C2596 C 0.80332 0.39956 0.75018
 H2597 H 0.83863 0.49400 0.75666
 H2598 H 0.90868 0.44425 0.74782
 H2599 H 0.83040 0.34084 0.79131
 H2600 H 0.77021 0.37436 0.74111
 H2601 H 0.88171 0.40467 0.75448
 H2602 H 0.85615 0.38219 0.78822
 H2603 H 0.81201 0.45451 0.76250
 H2604 H 0.79574 0.41545 0.73810
 C2605 C 0.34443 0.91845 0.25151
 C2606 C 0.37206 0.91616 0.24829
 C2607 C 0.38774 0.93895 0.24520
 C2608 C 0.37642 0.96494 0.24513
 C2609 C 0.34867 0.96694 0.24917
 C2610 C 0.33296 0.94412 0.25181
 C2611 C 0.32755 0.89420 0.25438
 C2612 C 0.30346 0.89179 0.24058
 C2613 C 0.28827 0.86850 0.24203
 C2614 C 0.29647 0.84714 0.25770
 C2615 C 0.32006 0.84991 0.27225
 C2616 C 0.33554 0.87307 0.27043
 H2617 H 0.40902 0.93634 0.24312
 H2618 H 0.33880 0.98604 0.25118
 H2619 H 0.27031 0.86698 0.23045
 H2620 H 0.32715 0.83372 0.28423
 H2621 H 0.31182 0.94659 0.25486
 H2622 H 0.29681 0.90760 0.22796
 H2623 H 0.38155 0.89667 0.24797
 H2624 H 0.35388 0.87441 0.28148
 C2625 C 0.15312 0.93305 0.74298
 C2626 C 0.13548 0.93533 0.76319
 C2627 C 0.12030 0.95858 0.76676
 C2628 C 0.12304 0.98102 0.75083
 C2629 C 0.13989 0.97793 0.72978
 C2630 C 0.15475 0.95441 0.72597
 C2631 C 0.17029 0.90872 0.74054
 C2632 C 0.17213 0.89434 0.71766
 C2633 C 0.18707 0.87038 0.71651
 C2634 C 0.20085 0.86066 0.73812
 C2635 C 0.19966 0.87584 0.76062
 C2636 C 0.18452 0.89930 0.76183
 H2637 H 0.10616 0.95842 0.78188
 H2638 H 0.14174 0.99406 0.71633
 H2639 H 0.18742 0.85927 0.69890
 H2640 H 0.20990 0.86928 0.77775
 H2641 H 0.16798 0.95315 0.71006
 H2642 H 0.16132 0.90116 0.70093
 H2643 H 0.13318 0.91883 0.77616
 H2644 H 0.18380 0.91010 0.77961
 C2645 C 0.65581 0.43236 0.24169
 C2646 C 0.65861 0.45066 0.26193
 C2647 C 0.64166 0.47299 0.26396
 C2648 C 0.62101 0.47794 0.24600
 C2649 C 0.61990 0.46059 0.22470
 C2650 C 0.63645 0.43805 0.22293
 C2651 C 0.67213 0.40703 0.24069
 C2652 C 0.67876 0.39455 0.21754
 C2653 C 0.69271 0.37000 0.21713
 C2654 C 0.70083 0.35755 0.23984
 C2655 C 0.69444 0.37023 0.26283
 C2656 C 0.68025 0.39432 0.26325
 H2657 H 0.64436 0.48633 0.27997
 H2658 H 0.60635 0.46396 0.20892
 H2659 H 0.69719 0.36083 0.19909
 H2660 H 0.69978 0.36116 0.28082
 H2661 H 0.63356 0.42481 0.20691
 H2662 H 0.67325 0.40373 0.19965
 H2663 H 0.67394 0.44778 0.27636
 H2664 H 0.67500 0.40252 0.28147
 C2665 C 0.65492 0.57354 0.25170
 C2666 C 0.65516 0.55548 0.23116
 C2667 C 0.63858 0.53299 0.23061
 C2668 C 0.62074 0.52782 0.25034
 C2669 C 0.62216 0.54509 0.27165
 C2670 C 0.63837 0.56767 0.27203
 C2671 C 0.67108 0.59872 0.25177
 C2672 C 0.68067 0.61031 0.27457
 C2673 C 0.69387 0.63497 0.27464
 C2674 C 0.69832 0.64852 0.25188
 C2675 C 0.68953 0.63655 0.22907
 C2676 C 0.67600 0.61220 0.22902
 H2677 H 0.63930 0.51973 0.21440
 H2678 H 0.61092 0.54160 0.28849
 H2679 H 0.70059 0.64340 0.29253
 H2680 H 0.69244 0.64637 0.21111
 H2681 H 0.63745 0.58081 0.28829
 H2682 H 0.67800 0.60039 0.29250
 H2683 H 0.66823 0.55862 0.21542
 H2684 H 0.66870 0.60443 0.21108
 C2685 C 0.15393 0.08066 0.76015
 C2686 C 0.12600 0.08165 0.75870
 C2687 C 0.11116 0.05814 0.75634
 C2688 C 0.12366 0.03273 0.75526
 C2689 C 0.15176 0.03197 0.75800
 C2690 C 0.16659 0.05554 0.75989
 C2691 C 0.16984 0.10574 0.76122
 C2692 C 0.19161 0.10893 0.74523
 C2693 C 0.20573 0.13292 0.74495
 C2694 C 0.19883 0.15426 0.76103
 C2695 C 0.17759 0.15082 0.77765
 C2696 C 0.16307 0.12692 0.77755
 H2697 H 0.08965 0.05977 0.75514
 H2698 H 0.16262 0.01330 0.75913
 H2699 H 0.22196 0.13489 0.73190
 H2700 H 0.17162 0.16693 0.79010
 H2701 H 0.18808 0.05411 0.76160
 H2702 H 0.19721 0.09310 0.73231
 H2703 H 0.11561 0.10069 0.75887
 H2704 H 0.14648 0.12499 0.79020
 C2705 C 0.34958 0.06548 0.23837
 C2706 C 0.36876 0.06191 0.25779
 C2707 C 0.38361 0.03821 0.25975
 C2708 C 0.37908 0.01662 0.24292
 C2709 C 0.36097 0.02114 0.22246
 C2710 C 0.34632 0.04508 0.22032
 C2711 C 0.33282 0.09025 0.23764
 C2712 C 0.32854 0.10489 0.21518
 C2713 C 0.31402 0.12909 0.21539
 C2714 C 0.30313 0.13890 0.23801
 C2715 C 0.30676 0.12361 0.26019
 C2716 C 0.32145 0.09979 0.26001
 H2717 H 0.39886 0.03732 0.27442
 H2718 H 0.35779 0.00573 0.20832
 H2719 H 0.31168 0.14028 0.19797
 H2720 H 0.29874 0.13030 0.27802
 H2721 H 0.33196 0.04737 0.20490
 H2722 H 0.33710 0.09804 0.19764
 H2723 H 0.37250 0.07771 0.27142
 H2724 H 0.32404 0.08880 0.27753
 C2725 C 0.85026 0.57342 0.73926
 C2726 C 0.86938 0.57055 0.75884
 C2727 C 0.88374 0.54669 0.76202
 C2728 C 0.87878 0.52435 0.74625
 C2729 C 0.86062 0.52801 0.72567
 C2730 C 0.84647 0.55210 0.72231
 C2731 C 0.83348 0.59810 0.73778
 C2732 C 0.82948 0.61247 0.71509
 C2733 C 0.81462 0.63653 0.71482
 C2734 C 0.80313 0.64633 0.73716
 C2735 C 0.80662 0.63125 0.75952
 C2736 C 0.82160 0.60770 0.75982
 H2737 H 0.89890 0.54616 0.77679
 H2738 H 0.85708 0.51189 0.71236
 H2739 H 0.81239 0.64755 0.69729
 H2740 H 0.79816 0.63784 0.77719
 H2741 H 0.83203 0.55380 0.70689
 H2742 H 0.83843 0.60548 0.69778
 H2743 H 0.87332 0.58696 0.77174
 H2744 H 0.82396 0.59690 0.77748
 C2745 C 0.92469 0.76989 0.17199
 C2746 C 0.92255 0.75352 0.15061
 C2747 C 0.94516 0.74547 0.13802
 C2748 C 0.97067 0.75328 0.14676
 C2749 C 0.97237 0.77101 0.16759
 C2750 C 0.94963 0.77864 0.18054
 C2751 C 0.90065 0.77582 0.18601
 C2752 C 0.87832 0.78641 0.17318
 C2753 C 0.85338 0.78497 0.18397
 C2754 C 0.85056 0.77259 0.20756
 C2755 C 0.87335 0.76416 0.22130
 C2756 C 0.89833 0.76587 0.21057
 H2757 H 0.94227 0.73375 0.12099
 H2758 H 0.99142 0.77887 0.17384
 H2759 H 0.83619 0.79200 0.17313
 H2760 H 0.87176 0.75504 0.23977
 H2761 H 0.95141 0.79151 0.19699
 H2762 H 0.87999 0.79414 0.15414
 H2763 H 0.90327 0.74669 0.14380
 H2764 H 0.91548 0.75746 0.22055
 C2765 C 0.43375 0.26164 0.67486
 C2766 C 0.44517 0.23638 0.67102
 C2767 C 0.46713 0.23358 0.65568
 C2768 C 0.47759 0.25584 0.64313
 C2769 C 0.46760 0.28146 0.64927
 C2770 C 0.44557 0.28424 0.66458
 C2771 C 0.40835 0.26398 0.68784
 C2772 C 0.38746 0.27892 0.67678
 C2773 C 0.36219 0.27824 0.68700
 C2774 C 0.35750 0.26257 0.70843
 C2775 C 0.37878 0.24860 0.72012
 C2776 C 0.40402 0.24929 0.70987
 H2777 H 0.47543 0.21379 0.65281
 H2778 H 0.47656 0.29946 0.64222
 H2779 H 0.34623 0.28939 0.67771
 H2780 H 0.37587 0.23661 0.73685
 H2781 H 0.43754 0.30402 0.66816
 H2782 H 0.39039 0.29014 0.65957
 H2783 H 0.43647 0.21865 0.67903
 H2784 H 0.42003 0.23787 0.71878
 C2785 C 0.43559 0.73475 0.81516
 C2786 C 0.44728 0.71246 0.82694
 C2787 C 0.46826 0.71573 0.84417
 C2788 C 0.47738 0.74153 0.85061
 C2789 C 0.46714 0.76344 0.83673
 C2790 C 0.44620 0.76016 0.81955
 C2791 C 0.41043 0.73222 0.80091
 C2792 C 0.40570 0.74743 0.77903
 C2793 C 0.38001 0.74980 0.76898
 C2794 C 0.35878 0.73698 0.78074
 C2795 C 0.36399 0.72000 0.80138
 C2796 C 0.38965 0.71768 0.81142
 H2797 H 0.47719 0.69795 0.85236
 H2798 H 0.47491 0.78332 0.83978
 H2799 H 0.37664 0.76265 0.75275
 H2800 H 0.34810 0.70947 0.81054
 H2801 H 0.43754 0.77770 0.81056
 H2802 H 0.42163 0.75850 0.77049
 H2803 H 0.43984 0.69256 0.82316
 H2804 H 0.39285 0.70597 0.82843
 C2805 C 0.93158 0.23270 0.32469
 C2806 C 0.93118 0.25034 0.34521
 C2807 C 0.95448 0.25609 0.35848
 C2808 C 0.97894 0.24460 0.35125
 C2809 C 0.97871 0.22566 0.33134
 C2810 C 0.95534 0.22033 0.31769
 C2811 C 0.90686 0.22808 0.31063
 C2812 C 0.88495 0.21815 0.32342
 C2813 C 0.85968 0.22004 0.31248
 C2814 C 0.85602 0.23228 0.28873
 C2815 C 0.87836 0.24031 0.27514
 C2816 C 0.90374 0.23814 0.28607
 H2817 H 0.95293 0.26897 0.37485
 H2818 H 0.99677 0.21512 0.32630
 H2819 H 0.84291 0.21327 0.32326
 H2820 H 0.87615 0.24939 0.25663
 H2821 H 0.95567 0.20632 0.30204
 H2822 H 0.88727 0.21040 0.34248
 H2823 H 0.91271 0.25973 0.35093
 H2824 H 0.92064 0.24604 0.27616
 C2825 C 0.07469 0.26548 0.32335
 C2826 C 0.07689 0.25961 0.34918
 C2827 C 0.05428 0.25427 0.36287
 C2828 C 0.02893 0.25401 0.35093
 C2829 C 0.02682 0.26220 0.32538
 C2830 C 0.04955 0.26725 0.31160
 C2831 C 0.09888 0.26748 0.30853
 C2832 C 0.10171 0.25164 0.28681
 C2833 C 0.12647 0.24905 0.27567
 C2834 C 0.14862 0.26232 0.28615
 C2835 C 0.14519 0.27977 0.30674
 C2836 C 0.12048 0.28227 0.31789
 H2837 H 0.05659 0.24969 0.38281
 H2838 H 0.00776 0.26498 0.31588
 H2839 H 0.12847 0.23571 0.25963
 H2840 H 0.16179 0.29071 0.31491
 H2841 H 0.04755 0.27251 0.29177
 H2842 H 0.08521 0.23996 0.27946
 H2843 H 0.09619 0.25825 0.35863
 H2844 H 0.11848 0.29483 0.33448
 C2845 C 0.56592 0.75805 0.81775
 C2846 C 0.55557 0.73246 0.82125
 C2847 C 0.53452 0.72879 0.83746
 C2848 C 0.52408 0.75044 0.85128
 C2849 C 0.53287 0.77642 0.84552
 C2850 C 0.55387 0.78010 0.82925
 C2851 C 0.59100 0.76115 0.80452
 C2852 C 0.61153 0.77598 0.81596
 C2853 C 0.63696 0.77510 0.80616
 C2854 C 0.64218 0.75930 0.78481
 C2855 C 0.62117 0.74584 0.77244
 C2856 C 0.59573 0.74675 0.78228
 H2857 H 0.52692 0.70880 0.83992
 H2858 H 0.52372 0.79403 0.85360
 H2859 H 0.65268 0.78597 0.81588
 H2860 H 0.62452 0.73383 0.75571
 H2861 H 0.56106 0.80012 0.82600
 H2862 H 0.60831 0.78700 0.83332
 H2863 H 0.56449 0.71514 0.81236
 H2864 H 0.57998 0.73543 0.77307
 C2865 C 0.56639 0.23667 0.67938
 C2866 C 0.55523 0.26230 0.67695
 C2867 C 0.53418 0.26682 0.66005
 C2868 C 0.52443 0.24603 0.64452
 C2869 C 0.53392 0.21981 0.64916
 C2870 C 0.55501 0.21530 0.66606
 C2871 C 0.59164 0.23311 0.69339
 C2872 C 0.61269 0.21937 0.68194
 C2873 C 0.63824 0.22055 0.69243
 C2874 C 0.64307 0.23556 0.71451
 C2875 C 0.62160 0.24763 0.72695
 C2876 C 0.59604 0.24642 0.71644
 H2877 H 0.52608 0.28686 0.65838
 H2878 H 0.52528 0.20267 0.63971
 H2879 H 0.65433 0.21066 0.68264
 H2880 H 0.62464 0.25897 0.74424
 H2881 H 0.56280 0.19519 0.66839
 H2882 H 0.60976 0.20914 0.66401
 H2883 H 0.56357 0.27912 0.68721
 H2884 H 0.57993 0.25684 0.72571
 C2885 C 0.06479 0.72095 0.17560
 C2886 C 0.03981 0.72135 0.18690
 C2887 C 0.01727 0.72911 0.17290
 C2888 C 0.01956 0.73787 0.14763
 C2889 C 0.04447 0.73513 0.13602
 C2890 C 0.06682 0.72706 0.14988
 C2891 C 0.08924 0.71760 0.19089
 C2892 C 0.11040 0.70229 0.18158
 C2893 C 0.13577 0.70481 0.19228
 C2894 C 0.14026 0.72273 0.21240
 C2895 C 0.11855 0.73612 0.22319
 C2896 C 0.09317 0.73356 0.21247
 H2897 H -0.00174 0.72825 0.18207
 H2898 H 0.04675 0.74019 0.11627
 H2899 H 0.15202 0.69368 0.18399
 H2900 H 0.12137 0.74977 0.23894
 H2901 H 0.08595 0.72688 0.14074
 H2902 H 0.10760 0.68960 0.16512
 H2903 H 0.03785 0.71603 0.20663
 H2904 H 0.07707 0.74566 0.21982
   
