data_POSCAR
  _audit_creation_date              2014-09-24
  _audit_creation_method            'ToBaCCo'
  _symmetry_space_group_name_H-M    'P1'
  _symmetry_Int_Tables_number       1
  _symmetry_cell_setting            triclinic
  loop_
  _symmetry_equiv_pos_as_xyz
 x,y,z
_cell_length_a 66.5434
_cell_length_b 65.5837
_cell_length_c 70.5885
_cell_angle_alpha 89.161700
_cell_angle_beta 92.563900
_cell_angle_gamma 88.846400
loop_
  _atom_site_label
  _atom_site_type_symbol
  _atom_site_fract_x
  _atom_site_fract_y
  _atom_site_fract_z
C1 C 0.39590 -0.03084 0.24463
 C2 C 0.40304 -0.01176 0.23880
 C3 C 0.41199 -0.00970 0.22128
 C4 C 0.41490 -0.02678 0.20997
 C5 C 0.40895 -0.04594 0.21664
 C6 C 0.39804 -0.04833 0.23330
 C7 C 0.40064 0.00621 0.25096
 C8 C 0.41093 0.00670 0.26879
 C9 C 0.40845 0.02334 0.28107
 C10 C 0.39509 0.03932 0.27474
 C11 C 0.38430 0.03871 0.25724
 C12 C 0.38749 0.02235 0.24514
 H13 H 0.38793 -0.03134 0.25760
 H14 H 0.41651 0.00521 0.21648
 H15 H 0.42021 -0.00642 0.27310
 H16 H 0.37910 0.02169 0.23165
 H17 H 0.41322 -0.05901 0.20852
 H18 H 0.39312 0.05284 0.28309
 C19 C 0.09971 -0.01733 0.75409
 C20 C 0.09024 0.00172 0.75657
 C21 C 0.07789 0.00466 0.77193
 C22 C 0.07480 -0.01132 0.78492
 C23 C 0.08453 -0.03028 0.78231
 C24 C 0.09719 -0.03344 0.76709
 C25 C 0.09361 0.01881 0.74333
 C26 C 0.08437 0.01900 0.72501
 C27 C 0.08784 0.03489 0.71185
 C28 C 0.10086 0.05054 0.71793
 C29 C 0.11063 0.05016 0.73594
 C30 C 0.10664 0.03447 0.74879
 H31 H 0.10961 -0.01930 0.74245
 H32 H 0.07053 0.01937 0.77355
 H33 H 0.07518 0.00619 0.72108
 H34 H 0.11425 0.03397 0.76269
 H35 H 0.08256 -0.04258 0.79241
 H36 H 0.10341 0.06362 0.70892
 C37 C 0.60564 0.46873 0.26171
 C38 C 0.59544 0.48743 0.26382
 C39 C 0.58215 0.48983 0.27849
 C40 C 0.57901 0.47374 0.29134
 C41 C 0.58960 0.45514 0.28922
 C42 C 0.60301 0.45249 0.27450
 C43 C 0.59907 0.50472 0.25096
 C44 C 0.59045 0.50507 0.23244
 C45 C 0.59428 0.52116 0.21982
 C46 C 0.60702 0.53680 0.22613
 C47 C 0.61627 0.53629 0.24441
 C48 C 0.61185 0.52040 0.25696
 H49 H 0.61619 0.46715 0.25053
 H50 H 0.57414 0.50427 0.27969
 H51 H 0.58115 0.49254 0.22784
 H52 H 0.61905 0.51969 0.27105
 H53 H 0.58770 0.44275 0.29924
 H54 H 0.61008 0.54944 0.21671
 C55 C 0.89395 0.47650 0.75099
 C56 C 0.90505 0.49349 0.74568
 C57 C 0.91184 0.49513 0.72720
 C58 C 0.90745 0.47999 0.71385
 C59 C 0.89591 0.46328 0.71925
 C60 C 0.88897 0.46151 0.73772
 C61 C 0.90866 0.51002 0.75925
 C62 C 0.92204 0.50674 0.77494
 C63 C 0.92529 0.52203 0.78857
 C64 C 0.91429 0.54063 0.78596
 C65 C 0.90051 0.54396 0.77046
 C66 C 0.89811 0.52868 0.75691
 H67 H 0.88832 0.47554 0.76514
 H68 H 0.92015 0.50843 0.72314
 H69 H 0.93031 0.49237 0.77591
 H70 H 0.88734 0.53086 0.74504
 H71 H 0.89217 0.45162 0.70904
 H72 H 0.91548 0.55241 0.79647
 C73 C 0.26596 0.35711 1.02112
 C74 C 0.26861 0.36920 1.00487
 C75 C 0.28694 0.37916 1.00271
 C76 C 0.30249 0.37742 1.01689
 C77 C 0.29944 0.36528 1.03304
 C78 C 0.28158 0.35442 1.03521
 C79 C 0.25301 0.36934 0.98919
 C80 C 0.23410 0.37900 0.99106
 C81 C 0.21919 0.37835 0.97624
 C82 C 0.22321 0.36713 0.95993
 C83 C 0.24188 0.35716 0.95801
 C84 C 0.25680 0.35865 0.97261
 H85 H 0.25221 0.34866 1.02185
 H86 H 0.28914 0.38789 0.98985
 H87 H 0.23123 0.38735 1.00382
 H88 H 0.27120 0.35086 0.97141
 H89 H 0.31091 0.36499 1.04439
 H90 H 0.21176 0.36624 0.94859
 C91 C 0.74173 0.14354 1.03008
 C92 C 0.73829 0.13093 1.01441
 C93 C 0.72083 0.11928 1.01310
 C94 C 0.70682 0.12005 1.02742
 C95 C 0.71027 0.13307 1.04281
 C96 C 0.72764 0.14509 1.04445
 C97 C 0.75225 0.13127 0.99867
 C98 C 0.76957 0.11855 0.99906
 C99 C 0.78277 0.11916 0.98400
 C100 C 0.77870 0.13302 0.96890
 C101 C 0.76164 0.14598 0.96844
 C102 C 0.74835 0.14485 0.98331
 H103 H 0.75489 0.15298 1.03030
 H104 H 0.71825 0.10958 1.00097
 H105 H 0.77256 0.10803 1.01088
 H106 H 0.73513 0.15480 0.98316
 H107 H 0.69945 0.13332 1.05380
 H108 H 0.78887 0.13368 0.95734
 C109 C 0.23124 0.64568 0.52626
 C110 C 0.22882 0.63157 0.51164
 C111 C 0.21224 0.61860 0.51132
 C112 C 0.19818 0.61954 0.52569
 C113 C 0.20093 0.63381 0.54024
 C114 C 0.21736 0.64697 0.54067
 C115 C 0.24359 0.63096 0.49659
 C116 C 0.26141 0.61915 0.49907
 C117 C 0.27635 0.61989 0.48552
 C118 C 0.27314 0.63281 0.46953
 C119 C 0.25542 0.64472 0.46685
 C120 C 0.24065 0.64361 0.48046
 H121 H 0.24387 0.65586 0.52621
 H122 H 0.21045 0.60769 0.50003
 H123 H 0.26359 0.60946 0.51158
 H124 H 0.22710 0.65303 0.47882
 H125 H 0.19022 0.63465 0.55132
 H126 H 0.28458 0.63376 0.45913
 C127 C 0.77290 0.84908 0.52833
 C128 C 0.77299 0.86299 0.51311
 C129 C 0.78868 0.87696 0.51203
 C130 C 0.80443 0.87732 0.52626
 C131 C 0.80373 0.86313 0.54153
 C132 C 0.78815 0.84907 0.54272
 C133 C 0.75636 0.86280 0.49846
 C134 C 0.73972 0.87617 0.49963
 C135 C 0.72296 0.87482 0.48680
 C136 C 0.72338 0.86011 0.47250
 C137 C 0.73990 0.84653 0.47113
 C138 C 0.75631 0.84798 0.48432
 H139 H 0.76086 0.83824 0.52891
 H140 H 0.78799 0.88790 0.50039
 H141 H 0.73975 0.88737 0.51077
 H142 H 0.76891 0.83730 0.48394
 H143 H 0.81559 0.86250 0.55250
 H144 H 0.71060 0.85899 0.46256
 C145 C -0.01330 0.24813 0.33154
 C146 C 0.00573 0.24418 0.34012
 C147 C 0.01238 0.22414 0.34409
 C148 C -0.00003 0.20762 0.33956
 C149 C -0.01828 0.21188 0.32927
 C150 C -0.02588 0.23194 0.32647
 C151 C 0.01799 0.26107 0.34687
 C152 C 0.01358 0.27091 0.36370
 C153 C 0.02636 0.28594 0.37095
 C154 C 0.04326 0.29134 0.36095
 C155 C 0.04759 0.28164 0.34402
 C156 C 0.03491 0.26640 0.33711
 H157 H -0.01855 0.26383 0.33014
 H158 H 0.02642 0.22191 0.35226
 H159 H 0.00059 0.26643 0.37138
 H160 H 0.03845 0.25825 0.32439
 H161 H -0.02683 0.19938 0.32350
 H162 H 0.05295 0.30327 0.36624
 C163 C -0.02696 0.73581 0.14443
 C164 C -0.00859 0.74098 0.13699
 C165 C -0.00799 0.75671 0.12348
 C166 C -0.02551 0.76759 0.11765
 C167 C -0.04385 0.76245 0.12527
 C168 C -0.04486 0.74663 0.13895
 C169 C 0.01006 0.72979 0.14310
 C170 C 0.01050 0.70843 0.14349
 C171 C 0.02873 0.69737 0.14693
 C172 C 0.04632 0.70840 0.15090
 C173 C 0.04587 0.72976 0.15085
 C174 C 0.02774 0.74039 0.14710
 H175 H -0.02708 0.72306 0.15432
 H176 H 0.00617 0.76038 0.11736
 H177 H -0.00313 0.70066 0.13922
 H178 H 0.02750 0.75693 0.14680
 H179 H -0.05693 0.77197 0.12150
 H180 H 0.06049 0.70050 0.15434
 C181 C 0.47466 0.22921 0.63976
 C182 C 0.49025 0.24093 0.63287
 C183 C 0.48570 0.25964 0.62374
 C184 C 0.46577 0.26667 0.62131
 C185 C 0.45031 0.25493 0.62811
 C186 C 0.45463 0.23623 0.63754
 C187 C 0.51127 0.23348 0.63449
 C188 C 0.51605 0.21366 0.62889
 C189 C 0.53616 0.20697 0.62849
 C190 C 0.55150 0.22021 0.63395
 C191 C 0.54687 0.24003 0.63980
 C192 C 0.52674 0.24658 0.64014
 H193 H 0.47815 0.21483 0.64705
 H194 H 0.49766 0.26857 0.61810
 H195 H 0.50413 0.20383 0.62382
 H196 H 0.52314 0.26195 0.64453
 H197 H 0.43500 0.26091 0.62683
 H198 H 0.56705 0.21499 0.63385
 C199 C 0.47403 0.75034 0.84061
 C200 C 0.49391 0.74445 0.84556
 C201 C 0.49870 0.72400 0.85016
 C202 C 0.48360 0.70928 0.85042
 C203 C 0.46391 0.71538 0.84437
 C204 C 0.45894 0.73582 0.84007
 C205 C 0.50946 0.75989 0.84806
 C206 C 0.50655 0.77613 0.86039
 C207 C 0.52215 0.78964 0.86447
 C208 C 0.54040 0.78722 0.85556
 C209 C 0.54352 0.77094 0.84332
 C210 C 0.52795 0.75729 0.83963
 H211 H 0.47025 0.76627 0.83769
 H212 H 0.51390 0.72028 0.85535
 H213 H 0.49254 0.77756 0.86757
 H214 H 0.53033 0.74432 0.83060
 H215 H 0.45215 0.70426 0.84301
 H216 H 0.55225 0.79804 0.85825
 C217 C -0.26800 0.64220 1.00957
 C218 C -0.25050 0.65305 1.01454
 C219 C -0.24707 0.65951 1.03326
 C220 C -0.26076 0.65503 1.04716
 C221 C -0.27779 0.64365 1.04217
 C222 C -0.28151 0.63660 1.02354
 C223 C -0.23484 0.65621 1.00064
 C224 C -0.23842 0.66960 0.98509
 C225 C -0.22330 0.67333 0.97207
 C226 C -0.20471 0.66258 0.97497
 C227 C -0.20111 0.64863 0.99015
 C228 C -0.21618 0.64590 1.00316
 H229 H -0.27004 0.63677 0.99521
 H230 H -0.23347 0.66760 1.03708
 H231 H -0.25272 0.67778 0.98392
 H232 H -0.21374 0.63521 1.01493
 H233 H -0.28852 0.64078 1.05294
 H234 H -0.19305 0.66424 0.96492
 C235 C -0.28900 0.35283 0.49606
 C236 C -0.26904 0.34627 0.49395
 C237 C -0.26416 0.33471 0.47830
 C238 C -0.27907 0.32926 0.46479
 C239 C -0.29911 0.33574 0.46711
 C240 C -0.30451 0.34797 0.48261
 C241 C -0.25321 0.35147 0.50827
 C242 C -0.25527 0.34578 0.52731
 C243 C -0.24056 0.35079 0.54123
 C244 C -0.22392 0.36204 0.53588
 C245 C -0.22181 0.36813 0.51692
 C246 C -0.23630 0.36238 0.50307
 H247 H -0.29184 0.36270 0.50782
 H248 H -0.24873 0.32953 0.47694
 H249 H -0.26845 0.33754 0.53123
 H250 H -0.23491 0.36715 0.48843
 H251 H -0.31038 0.33088 0.45675
 H252 H -0.21243 0.36601 0.54647
 C253 C 0.22386 -0.14692 -0.00574
 C254 C 0.24300 -0.15572 -0.00766
 C255 C 0.24689 -0.16756 -0.02350
 C256 C 0.23161 -0.17129 -0.03748
 C257 C 0.21237 -0.16229 -0.03516
 C258 C 0.20851 -0.14972 -0.01967
 C259 C 0.25929 -0.15181 0.00659
 C260 C 0.25803 -0.15915 0.02527
 C261 C 0.27305 -0.15483 0.03937
 C262 C 0.28920 -0.14260 0.03395
 C263 C 0.29030 -0.13478 0.01540
 C264 C 0.27551 -0.13985 0.00166
 H265 H 0.22128 -0.13711 0.00617
 H266 H 0.26173 -0.17447 -0.02430
 H267 H 0.24482 -0.16754 0.02869
 H268 H 0.27608 -0.13372 -0.01264
 H269 H 0.20048 -0.16403 -0.04593
 H270 H 0.30152 -0.13941 0.04388
 C271 C 0.23140 1.14199 0.50072
 C272 C 0.24916 1.15293 0.50361
 C273 C 0.25230 1.16407 0.52020
 C274 C 0.23786 1.16442 0.53413
 C275 C 0.22021 1.15315 0.53119
 C276 C 0.21688 1.14176 0.51458
 C277 C 0.26470 1.15256 0.48940
 C278 C 0.26219 1.16462 0.47289
 C279 C 0.27698 1.16480 0.45910
 C280 C 0.29421 1.15197 0.46245
 C281 C 0.29685 1.13982 0.47902
 C282 C 0.28213 1.14046 0.49258
 H283 H 0.22928 1.13312 0.48799
 H284 H 0.26593 1.17272 0.52207
 H285 H 0.24898 1.17450 0.47152
 H286 H 0.28390 1.13106 0.50533
 H287 H 0.20913 1.15300 0.54197
 H288 H 0.30550 1.15064 0.45197
 C289 C 0.10002 0.51286 0.23579
 C290 C 0.11253 0.51461 0.25217
 C291 C 0.12326 0.53264 0.25520
 C292 C 0.12174 0.54884 0.24180
 C293 C 0.10901 0.54674 0.22552
 C294 C 0.09800 0.52894 0.22240
 C295 C 0.11298 0.49813 0.26673
 C296 C 0.12416 0.47997 0.26438
 C297 C 0.12365 0.46388 0.27786
 C298 C 0.11156 0.46634 0.29358
 C299 C 0.09979 0.48410 0.29576
 C300 C 0.10082 0.50004 0.28235
 H301 H 0.09132 0.49920 0.23386
 H302 H 0.13282 0.53392 0.26794
 H303 H 0.13291 0.47834 0.25190
 H304 H 0.09167 0.51376 0.28367
 H305 H 0.10749 0.55915 0.21524
 H306 H 0.11151 0.45451 0.30443
 C307 C -0.09811 0.98202 0.21569
 C308 C -0.10813 0.98024 0.23275
 C309 C -0.11968 0.96296 0.23628
 C310 C -0.12178 0.94751 0.22266
 C311 C -0.11113 0.94950 0.20595
 C312 C -0.09950 0.96666 0.20190
 C313 C -0.10674 0.99671 0.24689
 C314 C -0.11841 1.01474 0.24433
 C315 C -0.11770 1.03040 0.25800
 C316 C -0.10424 1.02748 0.27398
 C317 C -0.09247 1.00953 0.27669
 C318 C -0.09399 0.99414 0.26311
 H319 H -0.08979 0.99572 0.21315
 H320 H -0.12771 0.96222 0.24927
 H321 H -0.12874 1.01578 0.23207
 H322 H -0.08503 0.98021 0.26500
 H323 H -0.11057 0.93657 0.19666
 H324 H -0.10247 1.03926 0.28443
 C325 C 0.39785 0.50240 -0.27776
 C326 C 0.38640 0.49914 -0.26176
 C327 C 0.37523 0.48124 -0.26025
 C328 C 0.37515 0.46684 -0.27480
 C329 C 0.38715 0.47004 -0.29037
 C330 C 0.39887 0.48761 -0.29208
 C331 C 0.38736 0.51384 -0.24601
 C332 C 0.37593 0.53217 -0.24698
 C333 C 0.37679 0.54620 -0.23185
 C334 C 0.39024 0.54153 -0.21621
 C335 C 0.40195 0.52347 -0.21523
 C336 C 0.40019 0.50956 -0.23010
 H337 H 0.40693 0.51590 -0.27827
 H338 H 0.36640 0.47871 -0.24792
 H339 H 0.36575 0.53478 -0.25919
 H340 H 0.40915 0.49556 -0.22953
 H341 H 0.38676 0.45886 -0.30151
 H342 H 0.39214 0.55216 -0.20474
 C343 C 0.60053 0.01459 -0.27388
 C344 C 0.61141 0.01643 -0.25651
 C345 C 0.62130 0.03464 -0.25236
 C346 C 0.62040 0.05114 -0.26537
 C347 C 0.60892 0.04921 -0.28247
 C348 C 0.59876 0.03105 -0.28707
 C349 C 0.61054 0.00015 -0.24180
 C350 C 0.62079 -0.01868 -0.24351
 C351 C 0.61974 -0.03401 -0.22931
 C352 C 0.60783 -0.03019 -0.21368
 C353 C 0.59713 -0.01167 -0.21206
 C354 C 0.59881 0.00351 -0.22609
 H355 H 0.59228 0.00074 -0.27626
 H356 H 0.62976 0.03584 -0.23896
 H357 H 0.62952 -0.02128 -0.25586
 H358 H 0.59059 0.01786 -0.22507
 H359 H 0.60831 0.06194 -0.29238
 H360 H 0.60731 -0.04141 -0.20232
 C361 C 0.00815 0.22601 0.89354
 C362 C 0.00172 0.24509 0.88607
 C363 C -0.01830 0.24802 0.87944
 C364 C -0.03191 0.23211 0.88022
 C365 C -0.02538 0.21313 0.88772
 C366 C -0.00536 0.20996 0.89435
 C367 C 0.01588 0.26197 0.88495
 C368 C 0.03508 0.25868 0.87807
 C369 C 0.04810 0.27501 0.87609
 C370 C 0.04205 0.29452 0.88162
 C371 C 0.02284 0.29805 0.88833
 C372 C 0.00981 0.28168 0.88996
 H373 H 0.02361 0.22368 0.89871
 H374 H -0.02317 0.26255 0.87310
 H375 H 0.03948 0.24365 0.87338
 H376 H -0.00515 0.28425 0.89501
 H377 H -0.03604 0.20093 0.88871
 H378 H 0.05241 0.30700 0.88068
 C379 C 0.48338 0.22158 0.11398
 C380 C 0.48893 0.24086 0.12029
 C381 C 0.50458 0.24262 0.13405
 C382 C 0.51476 0.22514 0.14145
 C383 C 0.50939 0.20591 0.13471
 C384 C 0.49396 0.20405 0.12070
 C385 C 0.47845 0.25914 0.11226
 C386 C 0.45754 0.26095 0.11317
 C387 C 0.44727 0.27877 0.10668
 C388 C 0.45814 0.29457 0.09878
 C389 C 0.47908 0.29278 0.09765
 C390 C 0.48924 0.27505 0.10434
 H391 H 0.47130 0.22036 0.10326
 H392 H 0.50874 0.25758 0.13903
 H393 H 0.44947 0.24891 0.12002
 H394 H 0.50547 0.27382 0.10377
 H395 H 0.51817 0.19256 0.13946
 H396 H 0.45041 0.30849 0.09387
 C397 C -0.01643 0.72336 0.59566
 C398 C -0.01388 0.74357 0.60112
 C399 C 0.00294 0.74876 0.61256
 C400 C 0.01713 0.73374 0.61868
 C401 C 0.01463 0.71359 0.61285
 C402 C -0.00203 0.70833 0.60124
 C403 C -0.02914 0.75921 0.59541
 C404 C -0.04917 0.75665 0.60001
 C405 C -0.06338 0.77281 0.59753
 C406 C -0.05727 0.79107 0.58897
 C407 C -0.03737 0.79338 0.58366
 C408 C -0.02335 0.77745 0.58707
 H409 H -0.02953 0.71941 0.58690
 H410 H 0.00465 0.76435 0.61715
 H411 H -0.05292 0.74275 0.60741
 H412 H -0.00774 0.77946 0.58380
 H413 H 0.02604 0.70211 0.61684
 H414 H -0.06798 0.80354 0.58624
 C415 C 0.50762 0.71363 0.39139
 C416 C 0.49888 0.73278 0.38665
 C417 C 0.47809 0.73452 0.38266
 C418 C 0.46601 0.71734 0.38331
 C419 C 0.47485 0.69836 0.38815
 C420 C 0.49566 0.69634 0.39199
 C421 C 0.51143 0.75091 0.38516
 C422 C 0.52950 0.74985 0.37576
 C423 C 0.54104 0.76727 0.37362
 C424 C 0.53452 0.78576 0.38112
 C425 C 0.51646 0.78703 0.39058
 C426 C 0.50497 0.76952 0.39252
 H427 H 0.52368 0.71217 0.39448
 H428 H 0.47143 0.74914 0.37822
 H429 H 0.53426 0.73562 0.36957
 H430 H 0.49094 0.77035 0.39971
 H431 H 0.46544 0.68511 0.38905
 H432 H 0.54385 0.79904 0.37997
 Zr433 Zr 0.01572 -0.03200 1.02232
 O434 O 0.04030 -0.02312 1.04019
 O435 O 0.01019 -0.06118 1.03285
 O436 O 0.00706 -0.03003 1.05079
 O437 O 0.04375 -0.04718 0.98484
 O438 O -0.02074 -0.00894 1.04879
 O439 O 0.04222 -0.04910 1.01701
 O440 O -0.01829 -0.07034 1.01624
 O441 O -0.01577 -0.03209 1.02126
 O442 O 0.00679 -0.04744 0.99771
 O443 O 0.00647 -0.00114 1.02247
 O444 O 0.02836 -0.01596 0.99978
 Zr445 Zr -0.02288 -0.00012 0.97285
 Zr446 Zr -0.02497 -0.00141 1.01988
 Zr447 Zr 0.01776 -0.03079 0.97526
 Zr448 Zr -0.02448 -0.04654 0.99625
 O449 O 0.04328 -0.01907 0.96230
 O450 O -0.05093 -0.05116 1.01129
 O451 O -0.01375 -0.03117 0.97251
 O452 O -0.03521 -0.01628 0.99536
 O453 O -0.01405 0.01559 0.99739
 O454 O 0.00860 -0.00028 0.97413
 C455 C -0.00416 -0.07350 1.02909
 C456 C 0.05079 -0.05301 1.00136
 C457 C -0.00783 -0.02050 1.05805
 O458 O -0.05244 -0.01168 1.03023
 O459 O -0.04852 0.01858 1.01070
 O460 O -0.04822 0.01877 0.97841
 C461 C -0.05563 0.02433 0.99419
 O462 O 0.04298 0.01652 1.01783
 Zr463 Zr 0.01732 0.01432 0.99899
 O464 O -0.01690 0.02886 0.96206
 O465 O -0.02221 0.02581 1.03544
 O466 O 0.01228 0.04017 1.01596
 O467 O 0.04327 0.02054 0.98367
 O468 O 0.01012 0.03902 0.98029
 C469 C -0.00334 0.04175 0.96676
 O470 O -0.04856 -0.00818 0.95602
 O471 O 0.01712 -0.05964 0.96221
 O472 O -0.01579 -0.00421 0.94415
 O473 O 0.01047 -0.02726 0.94611
 O474 O -0.01984 -0.07346 0.98060
 O475 O -0.04856 -0.04988 0.97578
 C476 C -0.00249 -0.01583 0.93671
 H477 H 0.01200 -0.06168 0.99758
 H478 H -0.05009 -0.01610 0.99409
 H479 H 0.01439 0.00654 0.96309
 H480 H 0.01119 0.00543 1.03435
 H481 H -0.05413 -0.06583 1.01050
 H482 H -0.05687 -0.00155 1.03954
 H483 H -0.03421 0.02692 1.04320
 H484 H 0.02067 0.05129 1.01121
 H485 H -0.02861 -0.08405 0.98575
 H486 H 0.02899 -0.06051 0.95425
 H487 H 0.04775 -0.02946 0.95326
 H488 H 0.04614 0.03523 0.98511
 H489 H -0.05568 -0.06265 0.97844
 H490 H -0.05171 0.00337 0.94708
 H491 H 0.04363 -0.03475 1.04899
 H492 H 0.04803 0.03061 1.01740
 Zr493 Zr 0.50193 0.46282 0.52324
 O494 O 0.52675 0.47097 0.54115
 O495 O 0.49305 0.43604 0.53639
 O496 O 0.49253 0.46905 0.55087
 O497 O 0.52904 0.44012 0.48836
 O498 O 0.46756 0.49322 0.54617
 O499 O 0.52717 0.44280 0.52040
 O500 O 0.46378 0.42831 0.52033
 O501 O 0.47052 0.46599 0.52112
 O502 O 0.49212 0.44547 0.50011
 O503 O 0.49569 0.49431 0.52028
 O504 O 0.51674 0.47458 0.49982
 Zr505 Zr 0.46817 0.49258 0.46992
 Zr506 Zr 0.46433 0.49712 0.51655
 Zr507 Zr 0.50526 0.45812 0.47657
 Zr508 Zr 0.46107 0.44954 0.49748
 O509 O 0.53242 0.46503 0.46357
 O510 O 0.43346 0.44981 0.51137
 O511 O 0.47391 0.46082 0.47278
 O512 O 0.45354 0.48048 0.49328
 O513 O 0.47770 0.51014 0.49309
 O514 O 0.49947 0.48915 0.47245
 C515 C 0.47723 0.42535 0.53385
 C516 C 0.53541 0.43591 0.50544
 C517 C 0.47883 0.48127 0.55688
 O518 O 0.43602 0.49070 0.52753
 O519 O 0.44204 0.51726 0.50459
 O520 O 0.44429 0.51403 0.47264
 C521 C 0.43608 0.52148 0.48733
 O522 O 0.53403 0.50696 0.51556
 Zr523 Zr 0.50885 0.50559 0.49603
 O524 O 0.47741 0.51948 0.45683
 O525 O 0.46906 0.52604 0.52867
 O526 O 0.50588 0.53373 0.51015
 O527 O 0.53597 0.50742 0.48147
 O528 O 0.50503 0.52837 0.47486
 C529 C 0.49233 0.53111 0.46074
 O530 O 0.44253 0.48508 0.45278
 O531 O 0.50145 0.42825 0.46624
 O532 O 0.47616 0.48508 0.44213
 O533 O 0.49957 0.45939 0.44704
 O534 O 0.46369 0.42031 0.48526
 O535 O 0.43761 0.44597 0.47642
 C536 C 0.48857 0.47146 0.43624
 H537 H 0.49587 0.43083 0.50163
 H538 H 0.43875 0.48189 0.49141
 H539 H 0.50642 0.49402 0.46119
 H540 H 0.50074 0.50174 0.53158
 H541 H 0.42877 0.43558 0.51196
 H542 H 0.43230 0.50239 0.53550
 H543 H 0.45707 0.52923 0.53600
 H544 H 0.51561 0.54321 0.50476
 H545 H 0.45374 0.41147 0.49118
 H546 H 0.51338 0.42499 0.45885
 H547 H 0.53597 0.45315 0.45577
 H548 H 0.54036 0.52177 0.48194
 H549 H 0.42923 0.43432 0.47996
 H550 H 0.44078 0.49580 0.44275
 H551 H 0.52855 0.46012 0.55105
 H552 H 0.54031 0.52046 0.51444
 Zr553 Zr 0.49253 1.01908 0.52258
 O554 O 0.47092 1.00692 0.54048
 O555 O 0.49911 1.04651 0.53578
 O556 O 0.50546 1.01377 0.55021
 O557 O 0.45850 1.03735 0.48781
 O558 O 0.53307 0.99356 0.54543
 O559 O 0.46474 1.03574 0.51983
 O560 O 0.52584 1.05794 0.51989
 O561 O 0.52372 1.02050 0.52019
 O562 O 0.49728 1.03810 0.49925
 O563 O 0.50284 0.98876 0.51974
 O564 O 0.47717 1.00548 0.49941
 Zr565 Zr 0.52462 0.99547 0.46918
 Zr566 Zr 0.53377 0.99065 0.51584
 Zr567 Zr 0.48365 1.02386 0.47597
 Zr568 Zr 0.52822 1.03862 0.49638
 O569 O 0.45659 1.01319 0.46304
 O570 O 0.55739 1.04228 0.50910
 O571 O 0.51454 1.02602 0.47190
 O572 O 0.53973 1.00913 0.49238
 O573 O 0.52007 0.97626 0.49254
 O574 O 0.49352 0.99404 0.47187
 C575 C 0.51367 1.05875 0.53357
 C576 C 0.45362 1.04069 0.50491
 C577 C 0.52131 1.00348 0.55616
 O578 O 0.56197 1.00104 0.52638
 O579 O 0.55705 0.97371 0.50390
 O580 O 0.55126 0.97717 0.47193
 C581 C 0.56167 0.97041 0.48668
 O582 O 0.46625 0.97045 0.51514
 Zr583 Zr 0.48904 0.97598 0.49564
 O584 O 0.51822 0.96763 0.45638
 O585 O 0.53449 0.96113 0.52837
 O586 O 0.49715 0.94830 0.51018
 O587 O 0.46127 0.97055 0.48083
 O588 O 0.49456 0.95406 0.47496
 C589 C 0.50611 0.95349 0.46083
 O590 O 0.54731 1.00688 0.45205
 O591 O 0.48186 1.05429 0.46556
 O592 O 0.51312 1.00276 0.44133
 O593 O 0.48627 1.02377 0.44647
 O594 O 0.51995 1.06785 0.48498
 O595 O 0.54788 1.04615 0.47454
 C596 C 0.49803 1.01423 0.43547
 H597 H 0.49164 1.05204 0.50079
 H598 H 0.55434 1.00983 0.49041
 H599 H 0.48633 0.98833 0.46064
 H600 H 0.50009 0.98045 0.53112
 H601 H 0.55994 1.05711 0.50956
 H602 H 0.56817 0.98986 0.53440
 H603 H 0.54752 0.95962 0.53566
 H604 H 0.48835 0.93756 0.50490
 H605 H 0.52931 1.07774 0.49086
 H606 H 0.46889 1.05581 0.45817
 H607 H 0.45052 1.02460 0.45523
 H608 H 0.45913 0.95564 0.48119
 H609 H 0.55467 1.05907 0.47760
 H610 H 0.54956 0.99668 0.44208
 H611 H 0.46860 1.01717 0.55039
 H612 H 0.46144 0.95635 0.51365
 Zr613 Zr -0.00741 0.52331 1.03212
 O614 O -0.03173 0.51553 1.04897
 O615 O 0.00311 0.54931 1.04570
 O616 O 0.00286 0.51620 1.06031
 O617 O -0.03596 0.54671 0.99565
 O618 O 0.02703 0.49148 1.05691
 O619 O -0.03243 0.54393 1.02784
 O620 O 0.03265 0.55528 1.03170
 O621 O 0.02383 0.51916 1.03143
 O622 O 0.00188 0.54089 1.00928
 O623 O -0.00213 0.49172 1.02974
 O624 O -0.02351 0.51241 1.00810
 Zr625 Zr 0.02352 0.49363 0.98070
 Zr626 Zr 0.02905 0.48803 1.02753
 Zr627 Zr -0.01255 0.52896 0.98520
 Zr628 Zr 0.03276 0.53589 1.00812
 O629 O -0.04014 0.52285 0.97045
 O630 O 0.06165 0.53470 1.02213
 O631 O 0.01861 0.52545 0.98297
 O632 O 0.03939 0.50487 1.00465
 O633 O 0.01435 0.47592 1.00359
 O634 O -0.00765 0.49783 0.98156
 C635 C 0.01993 0.55843 1.04462
 C636 C -0.04159 0.55075 1.01240
 C637 C 0.01650 0.50345 1.06701
 O638 O 0.05796 0.49351 1.03992
 O639 O 0.05044 0.46754 1.01693
 O640 O 0.04738 0.47186 0.98482
 C641 C 0.05590 0.46379 1.00002
 O642 O -0.04139 0.48081 1.02294
 Zr643 Zr -0.01661 0.48133 1.00496
 O644 O 0.01325 0.46685 0.96796
 O645 O 0.02400 0.45898 1.03962
 O646 O -0.01458 0.45314 1.02012
 O647 O -0.04396 0.48049 0.98839
 O648 O -0.01364 0.45816 0.98506
 C649 C -0.00132 0.45510 0.97185
 O650 O 0.04862 0.50050 0.96450
 O651 O -0.00882 0.55914 0.97514
 O652 O 0.01498 0.50231 0.95247
 O653 O -0.00750 0.52858 0.95603
 O654 O 0.02993 0.56590 0.99658
 O655 O 0.05461 0.53955 0.98734
 C656 C 0.00305 0.51670 0.94586
 H657 H -0.00149 0.55555 1.01065
 H658 H 0.05410 0.50314 1.00352
 H659 H -0.01499 0.49326 0.96992
 H660 H -0.00694 0.48421 1.04088
 H661 H 0.06670 0.54881 1.02256
 H662 H 0.06169 0.48159 1.04822
 H663 H 0.03611 0.45538 1.04776
 H664 H -0.02494 0.44414 1.01448
 H665 H 0.04047 0.57410 1.00302
 H666 H -0.02099 0.56279 0.96710
 H667 H -0.04377 0.53507 0.96249
 H668 H -0.04879 0.46630 0.98884
 H669 H 0.06308 0.55136 0.99056
 H670 H 0.04964 0.48985 0.95472
 H671 H -0.03283 0.52623 1.05869
 H672 H -0.04864 0.46788 1.02123
 Zr673 Zr -0.02530 0.46819 0.47111
 O674 O -0.04560 0.47768 0.44860
 O675 O -0.02072 0.43743 0.46505
 O676 O -0.01157 0.46733 0.44447
 O677 O -0.06177 0.46134 0.50371
 O678 O 0.01705 0.48542 0.44970
 O679 O -0.05393 0.45483 0.47321
 O680 O 0.00286 0.42640 0.48754
 O681 O 0.00556 0.46427 0.47781
 O682 O -0.02275 0.45468 0.49817
 O683 O -0.01334 0.49761 0.46991
 O684 O -0.04066 0.48814 0.48902
 Zr685 Zr 0.00613 0.50046 0.52324
 Zr686 Zr 0.01710 0.49373 0.47816
 Zr687 Zr -0.03637 0.47501 0.51619
 Zr688 Zr 0.00785 0.45176 0.50519
 O689 O -0.06295 0.49117 0.52281
 O690 O 0.03620 0.44229 0.49546
 O691 O -0.00591 0.47092 0.52470
 O692 O 0.02113 0.48050 0.50524
 O693 O 0.00352 0.51422 0.49625
 O694 O -0.02465 0.50416 0.51623
 C695 C -0.00900 0.42365 0.47290
 C696 C -0.06591 0.45432 0.48710
 C697 C 0.00474 0.47550 0.43897
 O698 O 0.04487 0.47859 0.47390
 O699 O 0.04018 0.51186 0.48929
 O700 O 0.03343 0.51642 0.52034
 C701 C 0.04409 0.51942 0.50571
 O702 O -0.04894 0.51997 0.46619
 Zr703 Zr -0.02714 0.51678 0.48905
 O704 O 0.00078 0.53112 0.52964
 O705 O 0.02046 0.51962 0.46040
 O706 O -0.01698 0.53969 0.47045
 O707 O -0.05475 0.52791 0.49919
 O708 O -0.02041 0.54256 0.50532
 C709 C -0.00963 0.54520 0.52064
 O710 O 0.02787 0.49141 0.54469
 O711 O -0.04101 0.44788 0.53185
 O712 O -0.00642 0.49936 0.55044
 O713 O -0.03492 0.48115 0.54520
 O714 O -0.00215 0.42772 0.52260
 O715 O 0.02761 0.44766 0.52951
 C716 C -0.02261 0.49100 0.55603
 H717 H -0.02932 0.44130 0.49888
 H718 H 0.03558 0.47910 0.50912
 H719 H -0.03175 0.51288 0.52522
 H720 H -0.01518 0.50363 0.45699
 H721 H 0.03781 0.42746 0.49817
 H722 H 0.05210 0.48713 0.46485
 H723 H 0.03384 0.51833 0.45483
 H724 H -0.02524 0.55219 0.47229
 H725 H 0.00643 0.41553 0.52037
 H726 H -0.05438 0.44935 0.53738
 H727 H -0.07022 0.48243 0.53168
 H728 H -0.05582 0.54267 0.49600
 H729 H 0.03410 0.43395 0.52928
 H730 H 0.03022 0.50342 0.55282
 H731 H -0.04819 0.46558 0.44063
 H732 H -0.05322 0.53448 0.46471
 Zr733 Zr 0.47676 -0.01834 -0.03369
 O734 O 0.45511 -0.00682 -0.05420
 O735 O 0.48159 -0.04791 -0.04312
 O736 O 0.48922 -0.01678 -0.06083
 O737 O 0.44276 -0.03012 0.00005
 O738 O 0.51746 0.00189 -0.05570
 O739 O 0.44881 -0.03303 -0.03137
 O740 O 0.50705 -0.06039 -0.02329
 O741 O 0.50795 -0.02183 -0.02899
 O742 O 0.48137 -0.03475 -0.00819
 O743 O 0.48792 0.01143 -0.03291
 O744 O 0.46216 -0.00109 -0.01315
 Zr745 Zr 0.51058 0.00904 0.01960
 Zr746 Zr 0.51881 0.00778 -0.02660
 Zr747 Zr 0.46853 -0.01704 0.01245
 Zr748 Zr 0.51232 -0.03730 -0.00311
 O749 O 0.44226 -0.00268 0.02228
 O750 O 0.54026 -0.04455 -0.01494
 O751 O 0.49946 -0.02093 0.01890
 O752 O 0.52480 -0.00826 -0.00106
 O753 O 0.50601 0.02567 -0.00587
 O754 O 0.47944 0.01235 0.01458
 C755 C 0.49439 -0.06188 -0.03756
 C756 C 0.43781 -0.03555 -0.01693
 C757 C 0.50514 -0.00800 -0.06648
 O758 O 0.54668 -0.00553 -0.03364
 O759 O 0.54218 0.02523 -0.01493
 O760 O 0.53741 0.02573 0.01684
 C761 C 0.54715 0.03061 0.00205
 O762 O 0.45178 0.03272 -0.03259
 Zr763 Zr 0.47498 0.02785 -0.01123
 O764 O 0.50481 0.03854 0.02932
 O765 O 0.52015 0.03550 -0.04220
 O766 O 0.48339 0.05300 -0.02814
 O767 O 0.44789 0.03689 0.00132
 O768 O 0.48204 0.05188 0.00713
 C769 C 0.49349 0.05310 0.02221
 O770 O 0.53371 -0.00160 0.03906
 O771 O 0.46542 -0.04598 0.02556
 O772 O 0.49993 0.00459 0.04730
 O773 O 0.47211 -0.01459 0.04194
 O774 O 0.50396 -0.06365 0.01216
 O775 O 0.53343 -0.04344 0.01985
 C776 C 0.48482 -0.00555 0.05302
 H777 H 0.47524 -0.04837 -0.00848
 H778 H 0.53944 -0.00962 0.00194
 H779 H 0.47275 0.01971 0.02478
 H780 H 0.48518 0.01863 -0.04520
 H781 H 0.54236 -0.05953 -0.01380
 H782 H 0.55297 0.00417 -0.04237
 H783 H 0.53316 0.03535 -0.04851
 H784 H 0.47502 0.06493 -0.02468
 H785 H 0.51260 -0.07515 0.00817
 H786 H 0.45251 -0.04557 0.03202
 H787 H 0.43594 -0.01263 0.03075
 H788 H 0.44627 0.05186 -0.00051
 H789 H 0.54011 -0.05687 0.01805
 H790 H 0.53632 0.00950 0.04819
 H791 H 0.45227 -0.01800 -0.06319
 H792 H 0.44715 0.04716 -0.03257
 Zr793 Zr 0.52428 0.52767 -0.02835
 O794 O 0.54552 0.51560 -0.04684
 O795 O 0.51821 0.55678 -0.04006
 O796 O 0.51127 0.52555 -0.05618
 O797 O 0.55913 0.53993 0.00700
 O798 O 0.48313 0.50689 -0.05220
 O799 O 0.55246 0.54235 -0.02492
 O800 O 0.49247 0.56857 -0.02269
 O801 O 0.49319 0.53113 -0.02556
 O802 O 0.52031 0.54465 -0.00391
 O803 O 0.51298 0.49789 -0.02692
 O804 O 0.53920 0.51062 -0.00614
 Zr805 Zr 0.49155 0.50135 0.02393
 Zr806 Zr 0.48218 0.50172 -0.02283
 Zr807 Zr 0.53359 0.52718 0.01831
 Zr808 Zr 0.48947 0.54711 -0.00065
 O809 O 0.56018 0.51309 0.03036
 O810 O 0.46049 0.55435 -0.01297
 O811 O 0.50285 0.53121 0.02282
 O812 O 0.47690 0.51827 0.00167
 O813 O 0.49533 0.48407 -0.00046
 O814 O 0.52257 0.49788 0.02103
 C815 C 0.50421 0.56984 -0.03664
 C816 C 0.56389 0.54494 -0.00987
 C817 C 0.49521 0.51674 -0.06253
 O818 O 0.45467 0.51553 -0.03295
 O819 O 0.45788 0.48622 -0.01184
 O820 O 0.46454 0.48480 0.02018
 C821 C 0.45352 0.48111 0.00512
 O822 O 0.54859 0.47591 -0.02368
 Zr823 Zr 0.52631 0.48170 -0.00367
 O824 O 0.49743 0.47225 0.03545
 O825 O 0.48008 0.47338 -0.03663
 O826 O 0.51712 0.45604 -0.01953
 O827 O 0.55402 0.47335 0.01066
 O828 O 0.52024 0.45824 0.01600
 C829 C 0.50893 0.45755 0.03034
 O830 O 0.46894 0.51238 0.04155
 O831 O 0.53681 0.55635 0.03037
 O832 O 0.50297 0.50614 0.05205
 O833 O 0.53092 0.52488 0.04769
 O834 O 0.49877 0.57439 0.01258
 O835 O 0.47014 0.55366 0.02175
 C836 C 0.51850 0.51592 0.05833
 H837 H 0.52637 0.55828 -0.00468
 H838 H 0.46235 0.51992 0.00376
 H839 H 0.52955 0.49074 0.03196
 H840 H 0.51539 0.49041 -0.03872
 H841 H 0.45839 0.56931 -0.01218
 H842 H 0.44794 0.50566 -0.04151
 H843 H 0.46702 0.47360 -0.04397
 H844 H 0.52557 0.44421 -0.01492
 H845 H 0.48969 0.58552 0.00752
 H846 H 0.54997 0.55619 0.03752
 H847 H 0.56680 0.52323 0.03869
 H848 H 0.55561 0.45832 0.00998
 H849 H 0.46383 0.56737 0.01966
 H850 H 0.46654 0.50144 0.05099
 H851 H 0.54813 0.52648 -0.05627
 H852 H 0.55333 0.46153 -0.02241
 Zr853 Zr 0.02277 1.02869 0.46640
 O854 O 0.04544 1.01512 0.45035
 O855 O 0.01813 1.05677 0.45242
 O856 O 0.01168 1.02414 0.43812
 O857 O 0.05460 1.04490 0.50287
 O858 O -0.01674 1.00579 0.44172
 O859 O 0.05065 1.04372 0.47064
 O860 O -0.00974 1.06968 0.46605
 O861 O -0.00858 1.03217 0.46667
 O862 O 0.01670 1.04791 0.48891
 O863 O 0.01155 0.99906 0.46937
 O864 O 0.03610 1.01403 0.49080
 Zr865 Zr -0.01391 1.00724 0.51797
 Zr866 Zr -0.01963 1.00299 0.47110
 Zr867 Zr 0.02833 1.03277 0.51327
 Zr868 Zr -0.01443 1.05051 0.48966
 O869 O 0.05413 1.02009 0.52805
 O870 O -0.04253 1.05610 0.47492
 O871 O -0.00281 1.03704 0.51518
 O872 O -0.02701 1.02181 0.49356
 O873 O -0.00800 0.98781 0.49549
 O874 O 0.01737 1.00364 0.51752
 C875 C 0.00365 1.06988 0.45342
 C876 C 0.06072 1.04816 0.48609
 C877 C -0.00398 1.01480 0.43149
 O878 O -0.04689 1.01518 0.45867
 O879 O -0.04390 0.98716 0.48185
 O880 O -0.04047 0.99015 0.51395
 C881 C -0.04971 0.98379 0.49874
 O882 O 0.04779 0.97855 0.47734
 Zr883 Zr 0.02322 0.98532 0.49459
 O884 O -0.00952 0.97892 0.53157
 O885 O -0.02006 0.97361 0.45910
 O886 O 0.01612 0.95841 0.47962
 O887 O 0.04922 0.97777 0.51195
 O888 O 0.01456 0.96332 0.51457
 C889 C 0.00171 0.96353 0.52770
 O890 O -0.03772 1.02025 0.53295
 O891 O 0.03032 1.06301 0.52314
 O892 O -0.00444 1.01392 0.54625
 O893 O 0.02333 1.03308 0.54237
 O894 O -0.00636 1.07915 0.50095
 O895 O -0.03556 1.05929 0.50988
 C896 C 0.01041 1.02453 0.55276
 H897 H 0.02275 1.06149 0.48750
 H898 H -0.04175 1.02338 0.49453
 H899 H 0.02341 0.99737 0.52934
 H900 H 0.01497 0.99058 0.45844
 H901 H -0.04470 1.07108 0.47400
 H902 H -0.05277 1.00442 0.45055
 H903 H -0.03266 0.97291 0.45111
 H904 H 0.02414 0.94703 0.48575
 H905 H -0.01506 1.08965 0.49427
 H906 H 0.04273 1.06354 0.53142
 H907 H 0.05985 1.03098 0.53612
 H908 H 0.05077 0.96270 0.51217
 H909 H -0.04188 1.07261 0.50606
 H910 H -0.04107 1.01024 0.54294
 H911 H 0.04874 1.02523 0.44043
 H912 H 0.05243 0.96426 0.47973
 Zr913 Zr 0.72037 0.25712 0.23026
 O914 O 0.72885 0.28095 0.21191
 O915 O 0.69136 0.25135 0.21963
 O916 O 0.72182 0.24662 0.20205
 O917 O 0.70653 0.28768 0.26709
 O918 O 0.74339 0.21909 0.20474
 O919 O 0.70380 0.28457 0.23497
 O920 O 0.68215 0.22365 0.23682
 O921 O 0.72016 0.22519 0.23185
 O922 O 0.70564 0.24953 0.25487
 O923 O 0.75074 0.24745 0.23068
 O924 O 0.73666 0.27114 0.25268
 Zr925 Zr 0.75258 0.22058 0.28077
 Zr926 Zr 0.75044 0.21562 0.23389
 Zr927 Zr 0.72260 0.26175 0.27726
 Zr928 Zr 0.70629 0.21788 0.25684
 O929 O 0.73470 0.28815 0.28993
 O930 O 0.70135 0.19046 0.24194
 O931 O 0.72201 0.22995 0.28051
 O932 O 0.73612 0.20682 0.25842
 O933 O 0.76753 0.22806 0.25623
 O934 O 0.75271 0.25241 0.27899
 C935 C 0.67895 0.23739 0.22373
 C936 C 0.70043 0.29409 0.25048
 C937 C 0.73177 0.23161 0.19503
 O938 O 0.73962 0.18758 0.22356
 O939 O 0.76988 0.19160 0.24391
 O940 O 0.77111 0.19477 0.27604
 C941 C 0.77608 0.18581 0.26073
 O942 O 0.76766 0.28527 0.23511
 Zr943 Zr 0.76642 0.25983 0.25398
 O944 O 0.78187 0.22649 0.29111
 O945 O 0.77744 0.21712 0.21924
 O946 O 0.79127 0.25468 0.23675
 O947 O 0.77340 0.28638 0.26955
 O948 O 0.79159 0.25246 0.27199
 C949 C 0.79490 0.23916 0.28540
 O950 O 0.74494 0.19544 0.29799
 O951 O 0.69437 0.26217 0.28997
 O952 O 0.74880 0.22903 0.30927
 O953 O 0.72630 0.25579 0.30649
 O954 O 0.68023 0.22345 0.27237
 O955 O 0.70315 0.19440 0.27751
 C956 C 0.73737 0.24286 0.31625
 H957 H 0.69165 0.25496 0.25482
 H958 H 0.73622 0.19180 0.26004
 H959 H 0.75985 0.25863 0.29000
 H960 H 0.75706 0.25161 0.21883
 H961 H 0.68686 0.18741 0.24248
 H962 H 0.74948 0.18249 0.21453
 H963 H 0.77827 0.20462 0.21157
 H964 H 0.80225 0.26359 0.24135
 H965 H 0.66958 0.21441 0.26730
 H966 H 0.69377 0.27466 0.29767
 H967 H 0.72466 0.29329 0.29874
 H968 H 0.78785 0.28908 0.26806
 H969 H 0.69061 0.18696 0.27459
 H970 H 0.75653 0.19260 0.30705
 H971 H 0.71716 0.28393 0.20301
 H972 H 0.78134 0.29096 0.23589
 Zr973 Zr 0.78179 0.74305 0.73176
 O974 O 0.77104 0.71938 0.71419
 O975 O 0.80902 0.74955 0.71981
 O976 O 0.77686 0.75376 0.70343
 O977 O 0.80021 0.71169 0.76849
 O978 O 0.75574 0.78134 0.70616
 O979 O 0.79894 0.71564 0.73632
 O980 O 0.81823 0.77904 0.73412
 O981 O 0.78220 0.77491 0.73294
 O982 O 0.79980 0.75018 0.75569
 O983 O 0.75156 0.75282 0.73266
 O984 O 0.76832 0.72871 0.75474
 Zr985 Zr 0.75589 0.77883 0.78240
 Zr986 Zr 0.75240 0.78456 0.73542
 Zr987 Zr 0.78554 0.73764 0.77873
 Zr988 Zr 0.79928 0.78181 0.75731
 O989 O 0.77531 0.71097 0.79219
 O990 O 0.80232 0.81099 0.74451
 O991 O 0.78645 0.76939 0.78155
 O992 O 0.76973 0.79286 0.75948
 O993 O 0.73794 0.77187 0.75832
 O994 O 0.75564 0.74702 0.78095
 C995 C 0.81986 0.76546 0.72120
 C996 C 0.80411 0.70565 0.75175
 C997 C 0.76614 0.76889 0.69641
 O998 O 0.76245 0.81232 0.72388
 O999 O 0.73555 0.80924 0.74547
 O1000 O 0.73701 0.80509 0.77769
 C1001 C 0.73132 0.81481 0.76225
 O1002 O 0.73533 0.71490 0.73815
 Zr1003 Zr 0.73877 0.74012 0.75650
 O1004 O 0.72795 0.77281 0.79358
 O1005 O 0.72336 0.78378 0.72202
 O1006 O 0.71192 0.74558 0.73970
 O1007 O 0.73339 0.71340 0.77264
 O1008 O 0.71582 0.74738 0.77488
 C1009 C 0.71424 0.76033 0.78827
 O1010 O 0.76596 0.80337 0.79925
 O1011 O 0.81533 0.73731 0.79060
 O1012 O 0.76237 0.76928 0.81087
 O1013 O 0.78503 0.74299 0.80800
 O1014 O 0.82830 0.77481 0.76963
 O1015 O 0.80583 0.80302 0.77910
 C1016 C 0.77460 0.75530 0.81786
 H1017 H 0.81374 0.74478 0.75496
 H1018 H 0.77000 0.80783 0.76097
 H1019 H 0.74977 0.74051 0.79211
 H1020 H 0.74377 0.74887 0.72105
 H1021 H 0.81688 0.81393 0.74461
 H1022 H 0.75150 0.81775 0.71512
 H1023 H 0.72182 0.79624 0.71393
 H1024 H 0.70149 0.73663 0.74467
 H1025 H 0.83780 0.78414 0.76369
 H1026 H 0.81697 0.72472 0.79849
 H1027 H 0.78652 0.70574 0.80075
 H1028 H 0.71878 0.71078 0.77136
 H1029 H 0.81862 0.80983 0.77663
 H1030 H 0.75547 0.80612 0.80849
 H1031 H 0.78150 0.71657 0.70493
 H1032 H 0.72169 0.70934 0.73916
 Zr1033 Zr 0.23411 0.23935 0.77427
 O1034 O 0.24294 0.21616 0.79428
 O1035 O 0.20639 0.24902 0.78406
 O1036 O 0.23811 0.25169 0.80168
 O1037 O 0.21641 0.20685 0.73967
 O1038 O 0.26036 0.27721 0.79762
 O1039 O 0.21593 0.21326 0.77132
 O1040 O 0.19786 0.27665 0.76523
 O1041 O 0.23545 0.27099 0.77049
 O1042 O 0.21762 0.24652 0.74905
 O1043 O 0.26492 0.24586 0.77377
 O1044 O 0.24787 0.22228 0.75311
 Zr1045 Zr 0.26397 0.26911 0.72205
 Zr1046 Zr 0.26596 0.27729 0.76855
 Zr1047 Zr 0.23204 0.23108 0.72784
 Zr1048 Zr 0.21996 0.27784 0.74484
 O1049 O 0.24156 0.20295 0.71652
 O1050 O 0.21760 0.30708 0.75709
 O1051 O 0.23299 0.26258 0.72237
 O1052 O 0.25014 0.28583 0.74327
 O1053 O 0.28074 0.26193 0.74720
 O1054 O 0.26236 0.23750 0.72601
 C1055 C 0.19490 0.26436 0.77916
 C1056 C 0.21149 0.20242 0.75665
 C1057 C 0.24882 0.26657 0.80788
 O1058 O 0.25771 0.30721 0.77650
 O1059 O 0.28597 0.29824 0.75759
 O1060 O 0.28388 0.29392 0.72556
 C1061 C 0.29063 0.30299 0.74063
 O1062 O 0.28078 0.20715 0.77263
 Zr1063 Zr 0.27811 0.23056 0.75146
 O1064 O 0.29115 0.25855 0.71162
 O1065 O 0.29367 0.27408 0.78432
 O1066 O 0.30511 0.23583 0.76756
 O1067 O 0.28155 0.20162 0.73884
 O1068 O 0.30117 0.23262 0.73202
 C1069 C 0.30328 0.24396 0.71723
 O1070 O 0.25646 0.29371 0.70311
 O1071 O 0.20253 0.23229 0.71530
 O1072 O 0.25707 0.25902 0.69415
 O1073 O 0.23328 0.23491 0.69835
 O1074 O 0.19214 0.27342 0.72977
 O1075 O 0.21644 0.29956 0.72223
 C1076 C 0.24426 0.24592 0.68790
 H1077 H 0.20340 0.24244 0.74937
 H1078 H 0.25087 0.30067 0.74074
 H1079 H 0.26786 0.22962 0.71550
 H1080 H 0.27197 0.24203 0.78599
 H1081 H 0.20328 0.31155 0.75581
 H1082 H 0.26847 0.31193 0.78547
 H1083 H 0.29579 0.28708 0.79103
 H1084 H 0.31530 0.22570 0.76364
 H1085 H 0.18251 0.28395 0.73401
 H1086 H 0.20065 0.21939 0.70838
 H1087 H 0.23037 0.19821 0.70807
 H1088 H 0.29594 0.19746 0.74042
 H1089 H 0.20429 0.30817 0.72399
 H1090 H 0.26736 0.29453 0.69400
 H1091 H 0.23193 0.21498 0.80324
 H1092 H 0.29439 0.20077 0.77257
 Zr1093 Zr 0.27319 0.76875 0.28491
 O1094 O 0.26757 0.79138 0.30518
 O1095 O 0.30030 0.75561 0.29568
 O1096 O 0.26904 0.75520 0.31186
 O1097 O 0.29311 0.80066 0.25158
 O1098 O 0.24467 0.73184 0.30599
 O1099 O 0.29379 0.79315 0.28328
 O1100 O 0.30562 0.72891 0.27608
 O1101 O 0.26919 0.73765 0.27990
 O1102 O 0.28764 0.76207 0.25996
 O1103 O 0.24185 0.76459 0.28309
 O1104 O 0.25956 0.78841 0.26392
 Zr1105 Zr 0.23830 0.74538 0.23054
 Zr1106 Zr 0.23814 0.73379 0.27664
 Zr1107 Zr 0.27320 0.78018 0.23883
 Zr1108 Zr 0.28278 0.73149 0.25453
 O1109 O 0.26567 0.81035 0.22962
 O1110 O 0.28344 0.70113 0.26537
 O1111 O 0.26974 0.74939 0.23211
 O1112 O 0.25200 0.72605 0.25160
 O1113 O 0.22343 0.75185 0.25540
 O1114 O 0.24228 0.77638 0.23577
 C1115 C 0.31010 0.73959 0.29077
 C1116 C 0.29953 0.80342 0.26877
 C1117 C 0.25725 0.74098 0.31715
 O1118 O 0.24501 0.70309 0.28454
 O1119 O 0.21689 0.71432 0.26402
 O1120 O 0.21733 0.72152 0.23236
 C1121 C 0.21125 0.71117 0.24666
 O1122 O 0.22959 0.80486 0.28254
 Zr1123 Zr 0.22860 0.78255 0.26099
 O1124 O 0.21086 0.75825 0.22029
 O1125 O 0.21096 0.73782 0.29069
 O1126 O 0.20258 0.77875 0.27686
 O1127 O 0.22599 0.81222 0.24864
 O1128 O 0.20358 0.78288 0.24157
 C1129 C 0.19955 0.77252 0.22658
 O1130 O 0.24297 0.72215 0.21058
 O1131 O 0.30118 0.77679 0.22596
 O1132 O 0.24416 0.75713 0.20320
 O1133 O 0.26878 0.78009 0.20926
 O1134 O 0.31042 0.73481 0.24108
 O1135 O 0.28352 0.71173 0.23095
 C1136 C 0.25675 0.77058 0.19787
 H1137 H 0.30225 0.76470 0.26090
 H1138 H 0.25021 0.71152 0.24848
 H1139 H 0.23650 0.78542 0.22549
 H1140 H 0.23570 0.76809 0.29516
 H1141 H 0.29731 0.69562 0.26433
 H1142 H 0.23420 0.69848 0.29273
 H1143 H 0.20826 0.72462 0.29701
 H1144 H 0.19294 0.78996 0.27310
 H1145 H 0.31928 0.72312 0.24524
 H1146 H 0.30385 0.78998 0.21962
 H1147 H 0.27651 0.81484 0.22143
 H1148 H 0.21202 0.81725 0.25018
 H1149 H 0.29508 0.70205 0.23273
 H1150 H 0.23138 0.72278 0.20122
 H1151 H 0.27911 0.79088 0.31458
 H1152 H 0.21663 0.81256 0.28230
 Zr1153 Zr 0.21060 0.76941 0.72115
 O1154 O 0.21516 0.79345 0.70157
 O1155 O 0.18152 0.76058 0.71294
 O1156 O 0.21082 0.75850 0.69298
 O1157 O 0.19738 0.79967 0.75846
 O1158 O 0.23502 0.73328 0.69473
 O1159 O 0.19256 0.79568 0.72657
 O1160 O 0.17679 0.73217 0.73104
 O1161 O 0.21353 0.73759 0.72337
 O1162 O 0.19869 0.76098 0.74698
 O1163 O 0.24155 0.76271 0.71959
 O1164 O 0.22722 0.78534 0.74216
 Zr1165 Zr 0.24998 0.73697 0.77003
 Zr1166 Zr 0.24446 0.73104 0.72338
 Zr1167 Zr 0.21611 0.77520 0.76792
 Zr1168 Zr 0.20255 0.72951 0.74954
 O1169 O 0.22684 0.80263 0.77971
 O1170 O 0.19909 0.70121 0.73572
 O1171 O 0.21887 0.74349 0.77176
 O1172 O 0.23312 0.72136 0.74910
 O1173 O 0.26213 0.74539 0.74426
 O1174 O 0.24686 0.76872 0.76770
 C1175 C 0.17112 0.74529 0.71803
 C1176 C 0.18967 0.80529 0.74214
 C1177 C 0.22165 0.74440 0.68556
 O1178 O 0.23545 0.70193 0.71412
 O1179 O 0.26629 0.70888 0.73226
 O1180 O 0.26986 0.71229 0.76430
 C1181 C 0.27405 0.70350 0.74864
 O1182 O 0.25532 0.80194 0.72203
 Zr1183 Zr 0.25779 0.77694 0.74156
 O1184 O 0.27894 0.74647 0.77834
 O1185 O 0.26993 0.73469 0.70685
 O1186 O 0.28150 0.77359 0.72267
 O1187 O 0.26310 0.80454 0.75608
 O1188 O 0.28472 0.77278 0.75797
 C1189 C 0.29010 0.76042 0.77165
 O1190 O 0.24660 0.71155 0.78838
 O1191 O 0.18894 0.77365 0.78234
 O1192 O 0.24715 0.74533 0.79871
 O1193 O 0.22190 0.76947 0.79695
 O1194 O 0.17753 0.73320 0.76685
 O1195 O 0.20323 0.70632 0.77093
 C1196 C 0.23462 0.75771 0.80625
 H1197 H 0.18438 0.76514 0.74783
 H1198 H 0.23465 0.70641 0.75091
 H1199 H 0.25407 0.77582 0.77817
 H1200 H 0.24651 0.76719 0.70722
 H1201 H 0.18516 0.69672 0.73751
 H1202 H 0.24493 0.69759 0.70445
 H1203 H 0.27125 0.72218 0.69925
 H1204 H 0.29185 0.78367 0.72621
 H1205 H 0.16736 0.72316 0.76271
 H1206 H 0.18797 0.78612 0.79004
 H1207 H 0.21709 0.80697 0.78914
 H1208 H 0.27697 0.80872 0.75353
 H1209 H 0.19112 0.69789 0.76930
 H1210 H 0.25905 0.71022 0.79663
 H1211 H 0.20258 0.79512 0.69356
 H1212 H 0.26836 0.80892 0.72179
 Zr1213 Zr 0.26966 0.23813 0.21690
 O1214 O 0.25361 0.21727 0.19970
 O1215 O 0.29614 0.24109 0.20251
 O1216 O 0.26377 0.25103 0.18953
 O1217 O 0.28630 0.20231 0.25060
 O1218 O 0.24760 0.28126 0.19511
 O1219 O 0.28355 0.20872 0.21871
 O1220 O 0.31119 0.26768 0.21754
 O1221 O 0.27502 0.26935 0.21928
 O1222 O 0.29071 0.24116 0.23950
 O1223 O 0.24150 0.25218 0.22094
 O1224 O 0.25639 0.22470 0.24049
 Zr1225 Zr 0.25481 0.27428 0.27122
 Zr1226 Zr 0.24744 0.28316 0.22479
 Zr1227 Zr 0.27704 0.22950 0.26325
 Zr1228 Zr 0.29519 0.27226 0.24238
 O1229 O 0.26399 0.20425 0.27667
 O1230 O 0.30136 0.30113 0.23028
 O1231 O 0.28321 0.26043 0.26725
 O1232 O 0.26807 0.28748 0.24761
 O1233 O 0.23376 0.27148 0.24851
 O1234 O 0.24934 0.24315 0.26866
 C1235 C 0.30952 0.25486 0.20391
 C1236 C 0.28827 0.19713 0.23325
 C1237 C 0.25507 0.26798 0.18403
 O1238 O 0.26033 0.30985 0.21384
 O1239 O 0.23481 0.30894 0.23752
 O1240 O 0.23886 0.30258 0.26939
 C1241 C 0.23264 0.31366 0.25496
 O1242 O 0.22055 0.21640 0.22708
 Zr1243 Zr 0.22929 0.24033 0.24548
 O1244 O 0.22777 0.27214 0.28495
 O1245 O 0.21757 0.28725 0.21364
 O1246 O 0.20220 0.24975 0.23061
 O1247 O 0.22097 0.21482 0.26197
 O1248 O 0.20928 0.25171 0.26528
 C1249 C 0.21133 0.26368 0.27951
 O1250 O 0.27022 0.29628 0.28764
 O1251 O 0.30740 0.22365 0.27227
 O1252 O 0.26282 0.26252 0.29868
 O1253 O 0.28057 0.23332 0.29270
 O1254 O 0.32390 0.26059 0.25190
 O1255 O 0.30689 0.29105 0.26436
 C1256 C 0.27340 0.24657 0.30398
 H1257 H 0.30357 0.23390 0.23733
 H1258 H 0.27061 0.30212 0.24969
 H1259 H 0.24364 0.23719 0.28017
 H1260 H 0.23216 0.25008 0.20986
 H1261 H 0.31613 0.30182 0.22914
 H1262 H 0.24951 0.31733 0.20636
 H1263 H 0.21711 0.30031 0.20638
 H1264 H 0.19105 0.24244 0.23638
 H1265 H 0.33406 0.26878 0.24553
 H1266 H 0.30772 0.21066 0.27963
 H1267 H 0.27501 0.19680 0.28391
 H1268 H 0.20608 0.21498 0.26203
 H1269 H 0.32015 0.29621 0.26092
 H1270 H 0.26137 0.30011 0.29801
 H1271 H 0.26243 0.21350 0.18928
 H1272 H 0.20659 0.21248 0.22950
 Zr1273 Zr 0.74290 0.72001 0.29445
 O1274 O 0.75396 0.69801 0.31475
 O1275 O 0.71431 0.72662 0.30405
 O1276 O 0.74609 0.73307 0.32176
 O1277 O 0.72881 0.68510 0.26049
 O1278 O 0.76544 0.76084 0.31676
 O1279 O 0.72709 0.69226 0.29192
 O1280 O 0.70241 0.75199 0.28392
 O1281 O 0.74036 0.75160 0.28977
 O1282 O 0.72619 0.72442 0.26885
 O1283 O 0.77262 0.73034 0.29376
 O1284 O 0.75893 0.70407 0.27394
 Zr1285 Zr 0.76939 0.75182 0.24141
 Zr1286 Zr 0.76984 0.76160 0.28757
 Zr1287 Zr 0.74268 0.71016 0.24826
 Zr1288 Zr 0.72456 0.75569 0.26377
 O1289 O 0.75554 0.68246 0.23901
 O1290 O 0.71853 0.78472 0.27534
 O1291 O 0.73957 0.74142 0.24178
 O1292 O 0.75343 0.76740 0.26200
 O1293 O 0.78651 0.74750 0.26685
 O1294 O 0.77191 0.72032 0.24639
 C1295 C 0.70089 0.73994 0.29833
 C1296 C 0.72367 0.68082 0.27742
 C1297 C 0.75579 0.74885 0.32750
 O1298 O 0.75745 0.79014 0.29518
 O1299 O 0.78671 0.78499 0.27595
 O1300 O 0.78624 0.77886 0.24423
 C1301 C 0.79137 0.78945 0.25892
 O1302 O 0.79275 0.69331 0.29366
 Zr1303 Zr 0.78786 0.71610 0.27214
 O1304 O 0.79803 0.74506 0.23200
 O1305 O 0.79795 0.76277 0.30274
 O1306 O 0.81351 0.72460 0.28889
 O1307 O 0.79535 0.68779 0.25983
 O1308 O 0.81113 0.72154 0.25351
 C1309 C 0.81216 0.73295 0.23861
 O1310 O 0.75893 0.77469 0.22169
 O1311 O 0.71387 0.70804 0.23456
 O1312 O 0.76450 0.74003 0.21375
 O1313 O 0.74545 0.71212 0.21879
 O1314 O 0.69769 0.74764 0.24866
 O1315 O 0.71865 0.77627 0.24056
 C1316 C 0.75479 0.72427 0.20790
 H1317 H 0.71253 0.71876 0.26909
 H1318 H 0.75234 0.78219 0.25902
 H1319 H 0.77876 0.71293 0.23631
 H1320 H 0.78006 0.72766 0.30603
 H1321 H 0.70381 0.78731 0.27398
 H1322 H 0.76750 0.79652 0.30389
 H1323 H 0.79834 0.77607 0.30922
 H1324 H 0.82491 0.71567 0.28541
 H1325 H 0.68688 0.75715 0.25248
 H1326 H 0.71357 0.69470 0.22815
 H1327 H 0.74535 0.67608 0.23044
 H1328 H 0.81011 0.68569 0.26159
 H1329 H 0.70578 0.78372 0.24225
 H1330 H 0.76976 0.77682 0.21269
 H1331 H 0.74311 0.69580 0.32371
 H1332 H 0.80688 0.68825 0.29367
 Zr1333 Zr 0.76781 0.27485 0.78806
 O1334 O 0.76113 0.29542 0.80985
 O1335 O 0.79678 0.26456 0.79670
 O1336 O 0.76650 0.25941 0.81455
 O1337 O 0.78046 0.31191 0.75576
 O1338 O 0.74447 0.23379 0.80862
 O1339 O 0.78524 0.30176 0.78670
 O1340 O 0.80383 0.23995 0.77540
 O1341 O 0.76692 0.24376 0.78165
 O1342 O 0.78129 0.27159 0.76206
 O1343 O 0.73719 0.26710 0.78747
 O1344 O 0.75086 0.29401 0.76880
 Zr1345 Zr 0.73261 0.25093 0.73418
 Zr1346 Zr 0.73643 0.23643 0.77958
 Zr1347 Zr 0.76370 0.28912 0.74259
 Zr1348 Zr 0.77949 0.24092 0.75528
 O1349 O 0.75216 0.31849 0.73460
 O1350 O 0.78412 0.21023 0.76462
 O1351 O 0.76330 0.25853 0.73445
 O1352 O 0.74949 0.23199 0.75349
 O1353 O 0.71867 0.25401 0.76005
 O1354 O 0.73345 0.28185 0.74082
 C1355 C 0.80804 0.25029 0.79036
 C1356 C 0.78758 0.31439 0.77276
 C1357 C 0.75639 0.24383 0.81971
 O1358 O 0.74718 0.20633 0.78553
 O1359 O 0.71662 0.21541 0.76688
 O1360 O 0.71404 0.22518 0.73573
 C1361 C 0.70993 0.21319 0.74964
 O1362 O 0.72040 0.30547 0.78992
 Zr1363 Zr 0.72078 0.28475 0.76705
 O1364 O 0.70378 0.26167 0.72549
 O1365 O 0.70995 0.23618 0.79509
 O1366 O 0.69636 0.27670 0.78376
 O1367 O 0.71453 0.31482 0.75662
 O1368 O 0.69502 0.28365 0.74866
 C1369 C 0.69153 0.27427 0.73302
 O1370 O 0.73839 0.22924 0.71303
 O1371 O 0.79131 0.29025 0.72888
 O1372 O 0.73596 0.26449 0.70714
 O1373 O 0.75792 0.29006 0.71315
 O1374 O 0.80550 0.24832 0.74051
 O1375 O 0.78095 0.22273 0.73068
 C1376 C 0.74660 0.27962 0.70187
 H1377 H 0.79542 0.27607 0.76245
 H1378 H 0.74902 0.21755 0.74965
 H1379 H 0.72627 0.29080 0.73123
 H1380 H 0.73141 0.26914 0.80001
 H1381 H 0.79837 0.20646 0.76266
 H1382 H 0.73753 0.19995 0.79399
 H1383 H 0.70914 0.22235 0.80083
 H1384 H 0.68538 0.28691 0.78106
 H1385 H 0.81581 0.23751 0.74357
 H1386 H 0.79201 0.30405 0.72308
 H1387 H 0.76199 0.32478 0.72626
 H1388 H 0.70026 0.31812 0.75897
 H1389 H 0.79349 0.21431 0.73145
 H1390 H 0.72641 0.22919 0.70413
 H1391 H 0.77319 0.29573 0.81863
 H1392 H 0.70674 0.31163 0.79060
 C1393 C 0.42086 1.03755 0.33145
 C1394 C 0.43928 1.02709 0.33566
 C1395 C 0.44672 1.01403 0.32170
 C1396 C 0.43668 1.01280 0.30373
 C1397 C 0.41864 1.02401 0.29931
 C1398 C 0.41082 1.03596 0.31383
 C1399 C 0.46415 1.00223 0.32580
 C1400 C 0.47399 1.00267 0.34364
 C1401 C 0.46719 1.01559 0.35796
 C1402 C 0.45013 1.02872 0.35350
 C1403 C 0.44462 1.04334 0.36689
 C1404 C 0.45437 1.04411 0.38459
 C1405 C 0.46986 1.03027 0.38978
 C1406 C 0.47674 1.01590 0.37661
 C1407 C 0.49240 1.00209 0.38297
 C1408 C 0.50012 1.00210 0.40181
 C1409 C 0.49268 1.01598 0.41483
 C1410 C 0.47803 1.03045 0.40840
 H1411 H 0.41331 1.04653 0.34175
 H1412 H 0.44351 1.00352 0.29313
 H1413 H 0.39631 1.04363 0.31215
 H1414 H 0.47005 0.99222 0.31520
 H1415 H 0.48718 0.99296 0.34569
 H1416 H 0.43296 1.05474 0.36398
 H1417 H 0.44938 1.05542 0.39450
 H1418 H 0.49839 0.99053 0.37398
 H1419 H 0.51136 0.99067 0.40636
 H1420 H 0.47221 1.04145 0.41820
 C1421 C -0.04562 0.49565 0.82900
 C1422 C -0.03740 0.51216 0.83918
 C1423 C -0.04098 0.53202 0.83145
 C1424 C -0.05250 0.53504 0.81445
 C1425 C -0.06146 0.51863 0.80481
 C1426 C -0.05736 0.49884 0.81225
 C1427 C -0.03338 0.54892 0.84088
 C1428 C -0.02350 0.54675 0.85854
 C1429 C -0.02062 0.52743 0.86742
 C1430 C -0.02649 0.50976 0.85708
 C1431 C -0.02153 0.49036 0.86513
 C1432 C -0.01256 0.48827 0.88325
 C1433 C -0.00860 0.50536 0.89423
 C1434 C -0.01242 0.52521 0.88645
 C1435 C -0.00900 0.54203 0.89844
 C1436 C -0.00301 0.53914 0.91747
 C1437 C 0.00031 0.51952 0.92514
 C1438 C -0.00178 0.50268 0.91329
 H1439 H -0.04401 0.48008 0.83399
 H1440 H -0.05418 0.55042 0.80872
 H1441 H -0.06416 0.48558 0.80594
 H1442 H -0.03560 0.56412 0.83481
 H1443 H -0.01820 0.56061 0.86486
 H1444 H -0.02438 0.47638 0.85774
 H1445 H -0.00940 0.47306 0.88898
 H1446 H -0.01189 0.55760 0.89390
 H1447 H -0.00155 0.55235 0.92644
 H1448 H 0.00045 0.48742 0.91927
 C1449 C 0.05144 0.01306 0.82758
 C1450 C 0.03970 -0.00281 0.83482
 C1451 C 0.03931 -0.02142 0.82484
 C1452 C 0.05008 -0.02378 0.80829
 C1453 C 0.06206 -0.00810 0.80157
 C1454 C 0.06244 0.01037 0.81134
 C1455 C 0.02852 -0.03778 0.83162
 C1456 C 0.01904 -0.03658 0.84872
 C1457 C 0.01966 -0.01871 0.85962
 C1458 C 0.02905 -0.00115 0.85197
 C1459 C 0.02759 0.01738 0.86183
 C1460 C 0.01863 0.01838 0.87923
 C1461 C 0.01121 0.00092 0.88776
 C1462 C 0.01150 -0.01788 0.87804
 C1463 C 0.00472 -0.03536 0.88770
 C1464 C -0.00106 -0.03431 0.90644
 C1465 C -0.00097 -0.01579 0.91597
 C1466 C 0.00451 0.00194 0.90638
 H1467 H 0.05308 0.02748 0.83453
 H1468 H 0.04932 -0.03805 0.80076
 H1469 H 0.07182 0.02266 0.80679
 H1470 H 0.02783 -0.05193 0.82388
 H1471 H 0.01112 -0.04995 0.85294
 H1472 H 0.03316 0.03150 0.85636
 H1473 H 0.01819 0.03287 0.88642
 H1474 H 0.00488 -0.05034 0.88164
 H1475 H -0.00488 -0.04822 0.91380
 H1476 H 0.00509 0.01621 0.91395
 C1477 C 0.55132 0.49798 0.33161
 C1478 C 0.53962 0.48181 0.33829
 C1479 C 0.54116 0.46280 0.32908
 C1480 C 0.55348 0.46044 0.31355
 C1481 C 0.56516 0.47656 0.30722
 C1482 C 0.56390 0.49530 0.31647
 C1483 C 0.53065 0.44611 0.33562
 C1484 C 0.51955 0.44749 0.35178
 C1485 C 0.51807 0.46588 0.36182
 C1486 C 0.52715 0.48363 0.35423
 C1487 C 0.52350 0.50256 0.36287
 C1488 C 0.51272 0.50387 0.37924
 C1489 C 0.50560 0.48637 0.38794
 C1490 C 0.50807 0.46710 0.37933
 C1491 C 0.50153 0.44968 0.38924
 C1492 C 0.49393 0.45132 0.40729
 C1493 C 0.49191 0.47033 0.41579
 C1494 C 0.49703 0.48790 0.40575
 H1495 H 0.55171 0.51266 0.33824
 H1496 H 0.55405 0.44591 0.30646
 H1497 H 0.57309 0.50792 0.31234
 H1498 H 0.53146 0.43162 0.32847
 H1499 H 0.51201 0.43385 0.35594
 H1500 H 0.52866 0.51675 0.35717
 H1501 H 0.51059 0.51868 0.38556
 H1502 H 0.50327 0.43443 0.38401
 H1503 H 0.49036 0.43755 0.41500
 H1504 H 0.49599 0.50260 0.41253
 C1505 C 0.59010 0.53009 0.16661
 C1506 C 0.57047 0.52364 0.16157
 C1507 C 0.55918 0.51464 0.17591
 C1508 C 0.56680 0.51390 0.19489
 C1509 C 0.58601 0.52132 0.19979
 C1510 C 0.59767 0.52884 0.18529
 C1511 C 0.54043 0.50642 0.17116
 C1512 C 0.53285 0.50657 0.15241
 C1513 C 0.54337 0.51584 0.13773
 C1514 C 0.56199 0.52539 0.14266
 C1515 C 0.57138 0.53690 0.12866
 C1516 C 0.56364 0.53794 0.11016
 C1517 C 0.54643 0.52737 0.10475
 C1518 C 0.53591 0.51615 0.11832
 C1519 C 0.51872 0.50543 0.11167
 C1520 C 0.51264 0.50564 0.09235
 C1521 C 0.52334 0.51667 0.07909
 C1522 C 0.53997 0.52780 0.08564
 H1523 H 0.60028 0.53559 0.15634
 H1524 H 0.55764 0.50773 0.20583
 H1525 H 0.61295 0.53361 0.18829
 H1526 H 0.53167 0.49946 0.18200
 H1527 H 0.51838 0.49977 0.14989
 H1528 H 0.58453 0.54580 0.13169
 H1529 H 0.57146 0.54690 0.09988
 H1530 H 0.51007 0.49621 0.12095
 H1531 H 0.49980 0.49679 0.08774
 H1532 H 0.54846 0.53653 0.07569
 C1533 C 0.07928 1.04758 0.66015
 C1534 C 0.06108 1.03787 0.65536
 C1535 C 0.05259 1.02556 0.66942
 C1536 C 0.06129 1.02456 0.68803
 C1537 C 0.07902 1.03519 0.69300
 C1538 C 0.08803 1.04614 0.67839
 C1539 C 0.03550 1.01429 0.66475
 C1540 C 0.02706 1.01452 0.64630
 C1541 C 0.03490 1.02680 0.63189
 C1542 C 0.05152 1.03948 0.63686
 C1543 C 0.05787 1.05368 0.62330
 C1544 C 0.04947 1.05437 0.60502
 C1545 C 0.03457 1.04083 0.59942
 C1546 C 0.02681 1.02695 0.61268
 C1547 C 0.01183 1.01342 0.60589
 C1548 C 0.00564 1.01319 0.58661
 C1549 C 0.01400 1.02655 0.57357
 C1550 C 0.02790 1.04079 0.58034
 H1551 H 0.08765 1.05577 0.64987
 H1552 H 0.05365 1.01594 0.69862
 H1553 H 0.10250 1.05313 0.68054
 H1554 H 0.02882 1.00482 0.67539
 H1555 H 0.01407 1.00521 0.64381
 H1556 H 0.06914 1.06484 0.62651
 H1557 H 0.05508 1.06534 0.59500
 H1558 H 0.00527 1.00224 0.61495
 H1559 H -0.00508 1.00197 0.58179
 H1560 H 0.03435 1.05143 0.57052
 C1561 C -0.09373 0.47950 0.66018
 C1562 C -0.07413 0.48562 0.65585
 C1563 C -0.06053 0.48994 0.67124
 C1564 C -0.06660 0.48835 0.69009
 C1565 C -0.08607 0.48210 0.69403
 C1566 C -0.09949 0.47779 0.67887
 C1567 C -0.04091 0.49562 0.66776
 C1568 C -0.03428 0.49681 0.64935
 C1569 C -0.04716 0.49259 0.63351
 C1570 C -0.06754 0.48729 0.63684
 C1571 C -0.08070 0.48381 0.62105
 C1572 C -0.07416 0.48465 0.60274
 C1573 C -0.05427 0.48904 0.59928
 C1574 C -0.04041 0.49333 0.61444
 C1575 C -0.02042 0.49790 0.60971
 C1576 C -0.01455 0.49766 0.59082
 C1577 C -0.02834 0.49281 0.57608
 C1578 C -0.04824 0.48891 0.58055
 H1579 H -0.10504 0.47565 0.64953
 H1580 H -0.05602 0.49155 0.70174
 H1581 H -0.11469 0.47322 0.68146
 H1582 H -0.03044 0.49899 0.67946
 H1583 H -0.01888 0.50113 0.64800
 H1584 H -0.09634 0.48040 0.62224
 H1585 H -0.08484 0.48162 0.59111
 H1586 H -0.00889 0.50145 0.62027
 H1587 H 0.00091 0.50084 0.58781
 H1588 H -0.05927 0.48551 0.56932
 C1589 C 0.42161 -0.03626 0.15786
 C1590 C 0.43808 -0.02405 0.15348
 C1591 C 0.44601 -0.01118 0.16782
 C1592 C 0.43852 -0.01186 0.18625
 C1593 C 0.42282 -0.02497 0.19056
 C1594 C 0.41420 -0.03664 0.17597
 C1595 C 0.46129 0.00225 0.16360
 C1596 C 0.46870 0.00338 0.14542
 C1597 C 0.46158 -0.00948 0.13081
 C1598 C 0.44658 -0.02396 0.13522
 C1599 C 0.44081 -0.03827 0.12139
 C1600 C 0.44837 -0.03771 0.10347
 C1601 C 0.46189 -0.02285 0.09848
 C1602 C 0.46892 -0.00855 0.11196
 C1603 C 0.48264 0.00621 0.10574
 C1604 C 0.48849 0.00693 0.08683
 C1605 C 0.48096 -0.00705 0.07360
 C1606 C 0.46809 -0.02217 0.07981
 H1607 H 0.41370 -0.04537 0.14750
 H1608 H 0.44512 -0.00243 0.19727
 H1609 H 0.40142 -0.04613 0.17850
 H1610 H 0.46744 0.01222 0.17442
 H1611 H 0.48036 0.01424 0.14333
 H1612 H 0.43071 -0.05050 0.12408
 H1613 H 0.44331 -0.04894 0.09328
 H1614 H 0.48861 0.01776 0.11499
 H1615 H 0.49842 0.01883 0.08244
 H1616 H 0.46233 -0.03333 0.06987
 C1617 C 0.35826 0.38875 0.02282
 C1618 C 0.35935 0.40896 0.01575
 C1619 C 0.34153 0.41795 0.00721
 C1620 C 0.32315 0.40759 0.00721
 C1621 C 0.32213 0.38793 0.01521
 C1622 C 0.34007 0.37850 0.02244
 C1623 C 0.34211 0.43735 -0.00108
 C1624 C 0.35999 0.44795 -0.00133
 C1625 C 0.37806 0.43982 0.00726
 C1626 C 0.37753 0.42038 0.01664
 C1627 C 0.39500 0.41328 0.02704
 C1628 C 0.41258 0.42444 0.02777
 C1629 C 0.41375 0.44284 0.01775
 C1630 C 0.39659 0.45063 0.00708
 C1631 C 0.39885 0.46868 -0.00375
 C1632 C 0.41725 0.47849 -0.00390
 C1633 C 0.43400 0.47100 0.00694
 C1634 C 0.43211 0.45329 0.01800
 H1635 H 0.37129 0.38029 0.02847
 H1636 H 0.30953 0.41510 0.00138
 H1637 H 0.34009 0.36300 0.02794
 H1638 H 0.32858 0.44439 -0.00759
 H1639 H 0.35898 0.46289 -0.00790
 H1640 H 0.39539 0.39931 0.03529
 H1641 H 0.42554 0.41840 0.03603
 H1642 H 0.38692 0.47526 -0.01284
 H1643 H 0.41844 0.49204 -0.01272
 H1644 H 0.44515 0.44718 0.02611
 C1645 C -0.15198 0.90995 0.54116
 C1646 C -0.14508 0.91714 0.52368
 C1647 C -0.15623 0.91171 0.50700
 C1648 C -0.17309 0.89908 0.50790
 C1649 C -0.17936 0.89125 0.52534
 C1650 C -0.16862 0.89736 0.54192
 C1651 C -0.15035 0.91863 0.48936
 C1652 C -0.13356 0.93069 0.48781
 C1653 C -0.12167 0.93628 0.50393
 C1654 C -0.12754 0.92942 0.52219
 C1655 C -0.11550 0.93483 0.53829
 C1656 C -0.09840 0.94647 0.53668
 C1657 C -0.09245 0.95327 0.51903
 C1658 C -0.10402 0.94834 0.50239
 C1659 C -0.09729 0.95564 0.48485
 C1660 C -0.07989 0.96705 0.48393
 C1661 C -0.06839 0.97181 0.50036
 C1662 C -0.07488 0.96489 0.51794
 H1663 H -0.14496 0.91383 0.55462
 H1664 H -0.18055 0.89457 0.49472
 H1665 H -0.17333 0.89304 0.55586
 H1666 H -0.15882 0.91462 0.47652
 H1667 H -0.13026 0.93523 0.47360
 H1668 H -0.11876 0.93014 0.55248
 H1669 H -0.08965 0.95011 0.54947
 H1670 H -0.10505 0.95283 0.47147
 H1671 H -0.07548 0.97219 0.47010
 H1672 H -0.06618 0.96838 0.53079
 C1673 C -0.17656 0.08418 0.96580
 C1674 C -0.16233 0.08267 0.98133
 C1675 C -0.16730 0.09257 0.99831
 C1676 C -0.18554 0.10371 0.99942
 C1677 C -0.19906 0.10556 0.98368
 C1678 C -0.19447 0.09547 0.96700
 C1679 C -0.15390 0.09163 1.01404
 C1680 C -0.13552 0.08132 1.01336
 C1681 C -0.12965 0.07140 0.99677
 C1682 C -0.14336 0.07190 0.98054
 C1683 C -0.13761 0.06164 0.96408
 C1684 C -0.11926 0.05118 0.96348
 C1685 C -0.10573 0.05053 0.97914
 C1686 C -0.11061 0.06081 0.99596
 C1687 C -0.09619 0.05995 1.01131
 C1688 C -0.07831 0.04867 1.01028
 C1689 C -0.07381 0.03795 0.99391
 C1690 C -0.08745 0.03933 0.97818
 H1691 H -0.17426 0.07708 0.95240
 H1692 H -0.18889 0.11158 1.01234
 H1693 H -0.20478 0.09647 0.95469
 H1694 H -0.15762 0.09908 1.02709
 H1695 H -0.12627 0.08139 1.02625
 H1696 H -0.14705 0.06125 0.95132
 H1697 H -0.11567 0.04342 0.95057
 H1698 H -0.09824 0.06765 1.02447
 H1699 H -0.06797 0.04820 1.02260
 H1700 H -0.08418 0.03113 0.96542
 C1701 C 0.32386 0.59514 0.50846
 C1702 C 0.33352 0.58659 0.49282
 C1703 C 0.32354 0.58882 0.47472
 C1704 C 0.30480 0.59913 0.47256
 C1705 C 0.29559 0.60779 0.48816
 C1706 C 0.30532 0.60554 0.50610
 C1707 C 0.33231 0.58084 0.45878
 C1708 C 0.35090 0.57078 0.46026
 C1709 C 0.36158 0.56812 0.47789
 C1710 C 0.35266 0.57601 0.49448
 C1711 C 0.36311 0.57293 0.51218
 C1712 C 0.38143 0.56238 0.51373
 C1713 C 0.39029 0.55459 0.49776
 C1714 C 0.38073 0.55755 0.47956
 C1715 C 0.39077 0.54963 0.46385
 C1716 C 0.40896 0.53858 0.46630
 C1717 C 0.41793 0.53507 0.48443
 C1718 C 0.40859 0.54352 0.50005
 H1719 H 0.33029 0.59436 0.52272
 H1720 H 0.29735 0.60040 0.45861
 H1721 H 0.29882 0.61228 0.51840
 H1722 H 0.32472 0.58245 0.44490
 H1723 H 0.35641 0.56505 0.44721
 H1724 H 0.35744 0.57829 0.52529
 H1725 H 0.38871 0.56023 0.52768
 H1726 H 0.38494 0.55154 0.44944
 H1727 H 0.41578 0.53240 0.45392
 H1728 H 0.41533 0.54113 0.51419
 C1729 C 0.15687 0.58534 0.54269
 C1730 C 0.14491 0.58215 0.52592
 C1731 C 0.15155 0.59090 0.50883
 C1732 C 0.16909 0.60256 0.50877
 C1733 C 0.18043 0.60598 0.52558
 C1734 C 0.17421 0.59706 0.54246
 C1735 C 0.14055 0.58820 0.49185
 C1736 C 0.12302 0.57708 0.49130
 C1737 C 0.11556 0.56814 0.50786
 C1738 C 0.12667 0.57070 0.52548
 C1739 C 0.11909 0.56182 0.54202
 C1740 C 0.10145 0.55071 0.54141
 C1741 C 0.09052 0.54791 0.52435
 C1742 C 0.09740 0.55666 0.50734
 C1743 C 0.08579 0.55346 0.49042
 C1744 C 0.06859 0.54175 0.49034
 C1745 C 0.06196 0.53275 0.50704
 C1746 C 0.07285 0.53621 0.52414
 H1747 H 0.15325 0.57908 0.55628
 H1748 H 0.17361 0.60950 0.49563
 H1749 H 0.18284 0.59912 0.55564
 H1750 H 0.14554 0.59481 0.47874
 H1751 H 0.11567 0.57588 0.47750
 H1752 H 0.12647 0.56318 0.55582
 H1753 H 0.09635 0.54415 0.55449
 H1754 H 0.08955 0.55962 0.47686
 H1755 H 0.06039 0.53973 0.47692
 H1756 H 0.06791 0.52939 0.53717
 C1757 C 0.66392 0.08674 0.04217
 C1758 C 0.65147 0.08591 0.02539
 C1759 C 0.65824 0.09597 0.00897
 C1760 C 0.67646 0.10655 0.00957
 C1761 C 0.68831 0.10759 0.02641
 C1762 C 0.68192 0.09741 0.04260
 C1763 C 0.64670 0.09566 -0.00796
 C1764 C 0.62849 0.08571 -0.00909
 C1765 C 0.62089 0.07557 0.00681
 C1766 C 0.63259 0.07559 0.02433
 C1767 C 0.62499 0.06534 0.04017
 C1768 C 0.60677 0.05527 0.03896
 C1769 C 0.59523 0.05499 0.02199
 C1770 C 0.60204 0.06528 0.00570
 C1771 C 0.58969 0.06470 -0.01111
 C1772 C 0.57189 0.05388 -0.01185
 C1773 C 0.56541 0.04327 0.00408
 C1774 C 0.57701 0.04423 0.02113
 H1775 H 0.66021 0.07942 0.05526
 H1776 H 0.68115 0.11450 -0.00302
 H1777 H 0.69093 0.09769 0.05576
 H1778 H 0.65180 0.10326 -0.02056
 H1779 H 0.62076 0.08628 -0.02280
 H1780 H 0.63283 0.06472 0.05385
 H1781 H 0.60170 0.04752 0.05149
 H1782 H 0.59330 0.07231 -0.02409
 H1783 H 0.56316 0.05376 -0.02517
 H1784 H 0.57219 0.03612 0.03357
 C1785 C 0.67941 0.90251 0.50910
 C1786 C 0.66747 0.90976 0.49318
 C1787 C 0.67478 0.90602 0.47496
 C1788 C 0.69310 0.89530 0.47298
 C1789 C 0.70449 0.88778 0.48892
 C1790 C 0.69747 0.89172 0.50695
 C1791 C 0.66366 0.91277 0.45876
 C1792 C 0.64526 0.92295 0.46012
 C1793 C 0.63713 0.92692 0.47787
 C1794 C 0.64853 0.92038 0.49468
 C1795 C 0.64058 0.92464 0.51245
 C1796 C 0.62223 0.93478 0.51384
 C1797 C 0.61091 0.94113 0.49766
 C1798 C 0.61804 0.93729 0.47941
 C1799 C 0.60566 0.94404 0.46354
 C1800 C 0.58733 0.95443 0.46584
 C1801 C 0.58058 0.95843 0.48397
 C1802 C 0.59248 0.95149 0.49978
 H1803 H 0.67514 0.90455 0.52349
 H1804 H 0.69845 0.89269 0.45892
 H1805 H 0.70567 0.88589 0.51954
 H1806 H 0.66919 0.91001 0.44479
 H1807 H 0.63777 0.92756 0.44687
 H1808 H 0.64821 0.92040 0.52573
 H1809 H 0.61685 0.93772 0.52784
 H1810 H 0.60968 0.94162 0.44913
 H1811 H 0.57851 0.95951 0.45332
 H1812 H 0.58755 0.95435 0.51395
 C1813 C 0.17255 0.41016 0.96169
 C1814 C 0.16088 0.40938 0.97798
 C1815 C 0.16928 0.39862 0.99414
 C1816 C 0.18840 0.38891 0.99374
 C1817 C 0.19949 0.38951 0.97730
 C1818 C 0.19138 0.40039 0.96142
 C1819 C 0.15852 0.39746 1.01061
 C1820 C 0.13964 0.40681 1.01154
 C1821 C 0.13057 0.41780 0.99592
 C1822 C 0.14130 0.41895 0.97879
 C1823 C 0.13208 0.42961 0.96305
 C1824 C 0.11340 0.43930 0.96409
 C1825 C 0.10297 0.43880 0.98078
 C1826 C 0.11124 0.42787 0.99689
 C1827 C 0.09989 0.42782 1.01340
 C1828 C 0.08170 0.43879 1.01404
 C1829 C 0.07388 0.45010 0.99827
 C1830 C 0.08447 0.44961 0.98152
 H1831 H 0.16765 0.41821 0.94885
 H1832 H 0.19444 0.38048 1.00610
 H1833 H 0.19973 0.40144 0.94863
 H1834 H 0.16478 0.38922 1.02300
 H1835 H 0.13254 0.40510 1.02486
 H1836 H 0.13894 0.43087 0.94958
 H1837 H 0.10711 0.44747 0.95167
 H1838 H 0.10476 0.41978 1.02625
 H1839 H 0.07389 0.43868 1.02718
 H1840 H 0.07872 0.45831 0.96919
 C1841 C 0.03431 0.31255 0.41755
 C1842 C 0.01531 0.32206 0.41981
 C1843 C -0.00061 0.31738 0.40662
 C1844 C 0.00277 0.30440 0.39145
 C1845 C 0.02204 0.29645 0.38869
 C1846 C 0.03758 0.30009 0.40214
 C1847 C -0.01955 0.32651 0.40804
 C1848 C -0.02259 0.34173 0.42108
 C1849 C -0.00672 0.34826 0.43332
 C1850 C 0.01196 0.33710 0.43381
 C1851 C 0.02691 0.34195 0.44775
 C1852 C 0.02459 0.35862 0.45938
 C1853 C 0.00749 0.37122 0.45735
 C1854 C -0.00861 0.36601 0.44459
 C1855 C -0.02538 0.37960 0.44265
 C1856 C -0.02562 0.39794 0.45229
 C1857 C -0.00938 0.40328 0.46438
 C1858 C 0.00682 0.38950 0.46739
 H1859 H 0.04725 0.31526 0.42681
 H1860 H -0.00930 0.30165 0.38102
 H1861 H 0.05253 0.29373 0.40040
 H1862 H -0.03193 0.32250 0.39840
 H1863 H -0.03757 0.34826 0.42110
 H1864 H 0.04073 0.33322 0.44993
 H1865 H 0.03671 0.36220 0.46949
 H1866 H -0.03811 0.37706 0.43308
 H1867 H -0.03849 0.40820 0.44994
 H1868 H 0.01945 0.39351 0.47675
 C1869 C 0.53375 -0.17549 -0.09460
 C1870 C 0.51617 -0.16301 -0.09431
 C1871 C 0.50037 -0.16677 -0.10791
 C1872 C 0.50225 -0.18239 -0.12110
 C1873 C 0.51987 -0.19432 -0.12128
 C1874 C 0.53549 -0.19084 -0.10786
 C1875 C 0.48285 -0.15478 -0.10848
 C1876 C 0.48088 -0.13852 -0.09636
 C1877 C 0.49642 -0.13367 -0.08298
 C1878 C 0.51396 -0.14666 -0.08137
 C1879 C 0.52873 -0.14279 -0.06694
 C1880 C 0.52701 -0.12618 -0.05517
 C1881 C 0.51068 -0.11264 -0.05739
 C1882 C 0.49507 -0.11618 -0.07124
 C1883 C 0.47907 -0.10168 -0.07316
 C1884 C 0.47880 -0.08439 -0.06199
 C1885 C 0.49436 -0.08090 -0.04847
 C1886 C 0.51010 -0.09529 -0.04603
 H1887 H 0.54664 -0.17359 -0.08507
 H1888 H 0.49018 -0.18491 -0.13159
 H1889 H 0.54917 -0.20011 -0.10758
 H1890 H 0.47061 -0.15780 -0.11865
 H1891 H 0.46683 -0.13011 -0.09778
 H1892 H 0.54187 -0.15241 -0.06423
 H1893 H 0.53884 -0.12370 -0.04443
 H1894 H 0.46676 -0.10284 -0.08348
 H1895 H 0.46635 -0.07357 -0.06416
 H1896 H 0.52227 -0.09271 -0.03566
 C1897 C -0.03811 -0.19410 1.07813
 C1898 C -0.02254 -0.17981 1.08061
 C1899 C -0.00781 -0.18364 1.09545
 C1900 C -0.00882 -0.20088 1.10721
 C1901 C -0.02437 -0.21471 1.10462
 C1902 C -0.03895 -0.21123 1.08999
 C1903 C 0.00782 -0.17019 1.09868
 C1904 C 0.00906 -0.15262 1.08778
 C1905 C -0.00541 -0.14774 1.07309
 C1906 C -0.02123 -0.16176 1.06916
 C1907 C -0.03523 -0.15723 1.05399
 C1908 C -0.03418 -0.13941 1.04332
 C1909 C -0.01924 -0.12534 1.04734
 C1910 C -0.00460 -0.12926 1.06223
 C1911 C 0.01010 -0.11430 1.06577
 C1912 C 0.01019 -0.09641 1.05497
 C1913 C -0.00430 -0.09267 1.04028
 C1914 C -0.01897 -0.10727 1.03653
 H1915 H -0.05000 -0.19248 1.06734
 H1916 H 0.00231 -0.20328 1.11876
 H1917 H -0.05105 -0.22185 1.08768
 H1918 H 0.01921 -0.17322 1.10991
 H1919 H 0.02170 -0.14321 1.09130
 H1920 H -0.04727 -0.16718 1.04987
 H1921 H -0.04532 -0.13654 1.03186
 H1922 H 0.02165 -0.11573 1.07689
 H1923 H 0.02169 -0.08539 1.05829
 H1924 H -0.03031 -0.10456 1.02521
 C1925 C 0.44483 0.30670 0.58655
 C1926 C 0.45637 0.32390 0.59157
 C1927 C 0.46977 0.32205 0.60776
 C1928 C 0.47205 0.30357 0.61779
 C1929 C 0.46134 0.28653 0.61196
 C1930 C 0.44734 0.28831 0.59665
 C1931 C 0.48132 0.33844 0.61359
 C1932 C 0.48110 0.35629 0.60292
 C1933 C 0.46929 0.35838 0.58586
 C1934 C 0.45581 0.34247 0.58070
 C1935 C 0.44265 0.34549 0.56460
 C1936 C 0.44359 0.36283 0.55318
 C1937 C 0.45786 0.37761 0.55715
 C1938 C 0.47083 0.37570 0.57361
 C1939 C 0.48549 0.39074 0.57666
 C1940 C 0.48729 0.40676 0.56383
 C1941 C 0.47455 0.40853 0.54753
 C1942 C 0.45960 0.39407 0.54443
 H1943 H 0.43428 0.30667 0.57453
 H1944 H 0.48264 0.30223 0.62991
 H1945 H 0.43890 0.27519 0.59203
 H1946 H 0.49110 0.33727 0.62628
 H1947 H 0.49048 0.36819 0.60847
 H1948 H 0.43143 0.33466 0.56034
 H1949 H 0.43341 0.36437 0.54079
 H1950 H 0.49631 0.39030 0.58846
 H1951 H 0.49897 0.41772 0.56666
 H1952 H 0.44967 0.39526 0.53185
 C1953 C 0.55681 1.16685 0.59675
 C1954 C 0.54406 1.15029 0.60017
 C1955 C 0.53075 1.15196 0.61525
 C1956 C 0.52955 1.16994 0.62558
 C1957 C 0.54091 1.18678 0.62076
 C1958 C 0.55510 1.18485 0.60684
 C1959 C 0.51786 1.13616 0.61925
 C1960 C 0.51632 1.11958 0.60740
 C1961 C 0.52778 1.11821 0.59110
 C1962 C 0.54303 1.13286 0.58834
 C1963 C 0.55615 1.13000 0.57339
 C1964 C 0.55326 1.11448 0.56049
 C1965 C 0.53707 1.10148 0.56181
 C1966 C 0.52421 1.10297 0.57724
 C1967 C 0.50764 1.08983 0.57759
 C1968 C 0.50413 1.07583 0.56328
 C1969 C 0.51696 1.07436 0.54814
 C1970 C 0.53351 1.08718 0.54759
 H1971 H 0.56736 1.16694 0.58562
 H1972 H 0.51883 1.17130 0.63666
 H1973 H 0.56405 1.19773 0.60290
 H1974 H 0.50817 1.13706 0.63118
 H1975 H 0.50583 1.10812 0.61130
 H1976 H 0.56882 1.13958 0.57121
 H1977 H 0.56345 1.11308 0.54899
 H1978 H 0.49674 1.09035 0.58842
 H1979 H 0.49123 1.06609 0.56414
 H1980 H 0.54362 1.08614 0.53600
 C1981 C 0.01151 0.64454 1.13900
 C1982 C 0.02731 0.63648 1.12847
 C1983 C 0.04522 0.64773 1.12779
 C1984 C 0.04649 0.66695 1.13608
 C1985 C 0.02955 0.67610 1.14398
 C1986 C 0.01257 0.66407 1.14639
 C1987 C 0.06119 0.64059 1.11742
 C1988 C 0.05877 0.62403 1.10563
 C1989 C 0.04032 0.61387 1.10411
 C1990 C 0.02520 0.61878 1.11714
 C1991 C 0.00800 0.60658 1.11753
 C1992 C 0.00452 0.59176 1.10405
 C1993 C 0.01783 0.58884 1.08959
 C1994 C 0.03612 0.59954 1.08957
 C1995 C 0.04880 0.59647 1.07426
 C1996 C 0.04340 0.58341 1.05958
 C1997 C 0.02526 0.57296 1.05969
 C1998 C 0.01267 0.57562 1.07489
 H1999 H -0.00246 0.63683 1.14063
 H2000 H 0.05988 0.67564 1.13392
 H2001 H -0.00033 0.66996 1.15357
 H2002 H 0.07524 0.64868 1.11743
 H2003 H 0.07154 0.61973 1.09758
 H2004 H -0.00319 0.60828 1.12799
 H2005 H -0.00916 0.58309 1.10449
 H2006 H 0.06266 0.60446 1.07284
 H2007 H 0.05349 0.58158 1.04807
 H2008 H -0.00137 0.56754 1.07524
 C2009 C 0.51123 0.66296 -0.12977
 C2010 C 0.49641 0.65389 -0.11885
 C2011 C 0.47673 0.66258 -0.12020
 C2012 C 0.47238 0.67985 -0.13154
 C2013 C 0.48752 0.68974 -0.14124
 C2014 C 0.50687 0.68063 -0.14060
 C2015 C 0.46156 0.65466 -0.10948
 C2016 C 0.46585 0.63933 -0.09620
 C2017 C 0.48551 0.63111 -0.09339
 C2018 C 0.50062 0.63725 -0.10590
 C2019 C 0.51937 0.62673 -0.10483
 C2020 C 0.52345 0.61130 -0.09140
 C2021 C 0.50938 0.60646 -0.07805
 C2022 C 0.49043 0.61672 -0.07857
 C2023 C 0.47733 0.61272 -0.06383
 C2024 C 0.48233 0.59811 -0.04990
 C2025 C 0.50049 0.58697 -0.05014
 C2026 C 0.51412 0.59141 -0.06414
 H2027 H 0.52657 0.65736 -0.12958
 H2028 H 0.45743 0.68660 -0.13106
 H2029 H 0.51887 0.68710 -0.14845
 H2030 H 0.44633 0.66087 -0.11087
 H2031 H 0.45332 0.63396 -0.08847
 H2032 H 0.53108 0.62978 -0.11448
 H2033 H 0.53795 0.60345 -0.09116
 H2034 H 0.46330 0.62094 -0.06242
 H2035 H 0.47159 0.59524 -0.03913
 H2036 H 0.52838 0.58313 -0.06425
 C2037 C 0.02689 1.16377 0.36476
 C2038 C 0.01057 1.15213 0.37068
 C2039 C -0.00897 1.15797 0.36360
 C2040 C -0.01197 1.17517 0.35186
 C2041 C 0.00407 1.18789 0.34753
 C2042 C 0.02364 1.18138 0.35355
 C2043 C -0.02573 1.14738 0.36914
 C2044 C -0.02378 1.13231 0.38302
 C2045 C -0.00484 1.12704 0.39163
 C2046 C 0.01274 1.13576 0.38423
 C2047 C 0.03176 1.12808 0.39095
 C2048 C 0.03348 1.11320 0.40520
 C2049 C 0.01642 1.10613 0.41382
 C2050 C -0.00296 1.11328 0.40740
 C2051 C -0.01970 1.10708 0.41754
 C2052 C -0.01730 1.09360 0.43289
 C2053 C 0.00174 1.08572 0.43850
 C2054 C 0.01860 1.09206 0.42896
 H2055 H 0.04225 1.16032 0.36937
 H2056 H -0.02738 1.17966 0.34804
 H2057 H 0.03665 1.18997 0.34984
 H2058 H -0.04066 1.15138 0.36329
 H2059 H -0.03742 1.12487 0.38665
 H2060 H 0.04561 1.13306 0.38523
 H2061 H 0.04835 1.10764 0.40991
 H2062 H -0.03478 1.11280 0.41430
 H2063 H -0.03053 1.08894 0.44010
 H2064 H 0.03344 1.08621 0.43346
 C2065 C 0.75100 0.70290 0.93147
 C2066 C 0.76739 0.71158 0.92234
 C2067 C 0.78681 0.70830 0.93100
 C2068 C 0.78958 0.69653 0.94772
 C2069 C 0.77337 0.68697 0.95622
 C2070 C 0.75395 0.69092 0.94800
 C2071 C 0.80358 0.71647 0.92277
 C2072 C 0.80176 0.72671 0.90544
 C2073 C 0.78293 0.72937 0.89561
 C2074 C 0.76532 0.72279 0.90470
 C2075 C 0.74635 0.72741 0.89568
 C2076 C 0.74468 0.73691 0.87790
 C2077 C 0.76178 0.74176 0.86814
 C2078 C 0.78118 0.73813 0.87688
 C2079 C 0.79807 0.74234 0.86607
 C2080 C 0.79574 0.74899 0.84723
 C2081 C 0.77660 0.75226 0.83862
 C2082 C 0.75963 0.74927 0.84931
 H2083 H 0.73573 0.70441 0.92580
 H2084 H 0.80462 0.69515 0.95418
 H2085 H 0.74087 0.68382 0.95354
 H2086 H 0.81844 0.71447 0.92958
 H2087 H 0.81550 0.73248 0.90014
 H2088 H 0.73241 0.72386 0.90206
 H2089 H 0.72980 0.73985 0.87143
 H2090 H 0.81333 0.73956 0.87133
 H2091 H 0.80902 0.75097 0.83911
 H2092 H 0.74476 0.75134 0.84253
 C2093 C 0.25297 0.19587 0.41862
 C2094 C 0.26968 0.20183 0.40836
 C2095 C 0.28900 0.19521 0.41545
 C2096 C 0.29131 0.18348 0.43227
 C2097 C 0.27458 0.17732 0.44237
 C2098 C 0.25537 0.18390 0.43516
 C2099 C 0.30602 0.20017 0.40566
 C2100 C 0.30427 0.21062 0.38841
 C2101 C 0.28531 0.21692 0.38035
 C2102 C 0.26787 0.21354 0.39102
 C2103 C 0.24925 0.22195 0.38397
 C2104 C 0.24747 0.23210 0.36652
 C2105 C 0.26400 0.23386 0.35517
 C2106 C 0.28319 0.22633 0.36192
 C2107 C 0.29927 0.22756 0.34950
 C2108 C 0.29616 0.23515 0.33102
 C2109 C 0.27715 0.24230 0.32441
 C2110 C 0.26124 0.24226 0.33673
 H2111 H 0.23769 0.19954 0.41388
 H2112 H 0.30645 0.17970 0.43759
 H2113 H 0.24180 0.17908 0.44161
 H2114 H 0.32090 0.19551 0.41119
 H2115 H 0.31818 0.21378 0.38182
 H2116 H 0.23572 0.22111 0.39174
 H2117 H 0.23281 0.23806 0.36158
 H2118 H 0.31421 0.22175 0.35321
 H2119 H 0.30858 0.23485 0.32160
 H2120 H 0.24639 0.24738 0.33149
 C2121 C 0.74943 0.31006 0.42298
 C2122 C 0.73722 0.29422 0.41589
 C2123 C 0.71930 0.29017 0.42531
 C2124 C 0.71422 0.30134 0.44134
 C2125 C 0.72648 0.31704 0.44811
 C2126 C 0.74409 0.32122 0.43874
 C2127 C 0.70639 0.27518 0.41856
 C2128 C 0.71029 0.26475 0.40209
 C2129 C 0.72756 0.26868 0.39181
 C2130 C 0.74179 0.28281 0.39941
 C2131 C 0.76004 0.28517 0.39022
 C2132 C 0.76358 0.27541 0.37333
 C2133 C 0.74904 0.26314 0.36477
 C2134 C 0.73092 0.25929 0.37398
 C2135 C 0.71642 0.24720 0.36437
 C2136 C 0.71932 0.24045 0.34600
 C2137 C 0.73694 0.24491 0.33688
 C2138 C 0.75205 0.25563 0.34653
 H2139 H 0.76292 0.31469 0.41636
 H2140 H 0.70065 0.29778 0.44855
 H2141 H 0.75365 0.33353 0.44338
 H2142 H 0.69283 0.27177 0.42585
 H2143 H 0.69947 0.25352 0.39783
 H2144 H 0.77201 0.29448 0.39577
 H2145 H 0.77761 0.27809 0.36655
 H2146 H 0.70214 0.24373 0.37011
 H2147 H 0.70731 0.23255 0.33850
 H2148 H 0.76548 0.25954 0.33921
 C2149 C 0.25838 0.80545 0.92213
 C2150 C 0.24272 0.79544 0.91201
 C2151 C 0.22349 0.79576 0.91987
 C2152 C 0.22011 0.80621 0.93669
 C2153 C 0.23555 0.81687 0.94628
 C2154 C 0.25487 0.81583 0.93887
 C2155 C 0.20753 0.78585 0.91080
 C2156 C 0.20980 0.77666 0.89345
 C2157 C 0.22826 0.77705 0.88433
 C2158 C 0.24525 0.78573 0.89415
 C2159 C 0.26403 0.78477 0.88557
 C2160 C 0.26590 0.77691 0.86751
 C2161 C 0.24916 0.76990 0.85715
 C2162 C 0.23014 0.76954 0.86553
 C2163 C 0.21352 0.76271 0.85429
 C2164 C 0.21552 0.75774 0.83536
 C2165 C 0.23412 0.75884 0.82702
 C2166 C 0.25110 0.76419 0.83812
 H2167 H 0.27345 0.80611 0.91723
 H2168 H 0.20531 0.80559 0.94244
 H2169 H 0.26729 0.82405 0.94528
 H2170 H 0.19291 0.78556 0.91699
 H2171 H 0.19663 0.76944 0.88751
 H2172 H 0.27766 0.79018 0.89238
 H2173 H 0.28053 0.77696 0.86135
 H2174 H 0.19851 0.76199 0.85931
 H2175 H 0.20223 0.75370 0.82691
 H2176 H 0.26548 0.76535 0.83157
 C2177 C 0.28137 0.84077 0.09216
 C2178 C 0.27117 0.82280 0.09674
 C2179 C 0.26038 0.81299 0.08189
 C2180 C 0.26097 0.82031 0.06304
 C2181 C 0.27193 0.83784 0.05844
 C2182 C 0.28171 0.84804 0.07355
 C2183 C 0.24907 0.79586 0.08591
 C2184 C 0.24801 0.78841 0.10441
 C2185 C 0.25882 0.79744 0.11967
 C2186 C 0.27111 0.81451 0.11561
 C2187 C 0.28336 0.82249 0.13044
 C2188 C 0.28304 0.81471 0.14874
 C2189 C 0.27042 0.79881 0.15314
 C2190 C 0.25803 0.78989 0.13882
 C2191 C 0.24527 0.77400 0.14445
 C2192 C 0.24493 0.76746 0.16346
 C2193 C 0.25735 0.77640 0.17745
 C2194 C 0.27015 0.79196 0.17199
 H2195 H 0.28880 0.85002 0.10271
 H2196 H 0.25343 0.81167 0.05200
 H2197 H 0.28910 0.86236 0.07138
 H2198 H 0.24073 0.78823 0.07463
 H2199 H 0.23891 0.77520 0.10625
 H2200 H 0.29384 0.83451 0.12831
 H2201 H 0.29274 0.82138 0.15964
 H2202 H 0.23507 0.76662 0.13459
 H2203 H 0.23476 0.75551 0.16722
 H2204 H 0.27984 0.79919 0.18255
 C2205 C 0.76127 0.35209 0.59492
 C2206 C 0.75476 0.33240 0.60006
 C2207 C 0.74884 0.31916 0.58522
 C2208 C 0.75028 0.32522 0.56615
 C2209 C 0.75735 0.34455 0.56137
 C2210 C 0.76254 0.35795 0.57596
 C2211 C 0.74167 0.29986 0.58947
 C2212 C 0.74025 0.29328 0.60815
 C2213 C 0.74634 0.30566 0.62348
 C2214 C 0.75396 0.32546 0.61933
 C2215 C 0.76098 0.33749 0.63457
 C2216 C 0.76059 0.33057 0.65316
 C2217 C 0.75304 0.31149 0.65745
 C2218 C 0.74550 0.29880 0.64282
 C2219 C 0.73752 0.27978 0.64828
 C2220 C 0.73762 0.27358 0.66737
 C2221 C 0.74571 0.28603 0.68161
 C2222 C 0.75318 0.30506 0.67645
 H2223 H 0.76533 0.36348 0.60514
 H2224 H 0.74624 0.31467 0.55499
 H2225 H 0.76746 0.37320 0.57271
 H2226 H 0.73707 0.28969 0.57818
 H2227 H 0.73467 0.27813 0.61010
 H2228 H 0.76735 0.35229 0.63265
 H2229 H 0.76637 0.34030 0.66435
 H2230 H 0.73101 0.26935 0.63820
 H2231 H 0.73154 0.25889 0.67095
 H2232 H 0.75917 0.31507 0.68731
 C2233 C 0.26412 0.18791 0.57725
 C2234 C 0.24834 0.19883 0.58565
 C2235 C 0.22886 0.19801 0.57669
 C2236 C 0.22561 0.18706 0.55988
 C2237 C 0.24141 0.17630 0.55178
 C2238 C 0.26065 0.17686 0.56069
 C2239 C 0.21263 0.20797 0.58461
 C2240 C 0.21503 0.21797 0.60174
 C2241 C 0.23397 0.21872 0.61156
 C2242 C 0.25107 0.20996 0.60288
 C2243 C 0.27029 0.21262 0.61173
 C2244 C 0.27262 0.22230 0.62907
 C2245 C 0.25592 0.22934 0.63850
 C2246 C 0.23634 0.22774 0.62986
 C2247 C 0.21983 0.23429 0.64038
 C2248 C 0.22268 0.24123 0.65887
 C2249 C 0.24199 0.24246 0.66735
 C2250 C 0.25863 0.23711 0.65692
 H2251 H 0.27923 0.18710 0.58340
 H2252 H 0.21069 0.18697 0.55306
 H2253 H 0.27309 0.16835 0.55504
 H2254 H 0.19777 0.20769 0.57768
 H2255 H 0.20170 0.22523 0.60681
 H2256 H 0.28396 0.20751 0.60551
 H2257 H 0.28765 0.22371 0.63544
 H2258 H 0.20443 0.23322 0.63519
 H2259 H 0.20962 0.24506 0.66685
 H2260 H 0.27358 0.23757 0.66365
 C2261 C 0.74200 0.65284 0.10079
 C2262 C 0.74675 0.67306 0.10585
 C2263 C 0.75061 0.68704 0.09099
 C2264 C 0.74869 0.68108 0.07187
 C2265 C 0.74291 0.66123 0.06720
 C2266 C 0.74003 0.64717 0.08187
 C2267 C 0.75607 0.70695 0.09529
 C2268 C 0.75760 0.71343 0.11400
 C2269 C 0.75339 0.70029 0.12929
 C2270 C 0.74766 0.67982 0.12508
 C2271 C 0.74249 0.66690 0.14019
 C2272 C 0.74294 0.67355 0.15871
 C2273 C 0.74871 0.69327 0.16311
 C2274 C 0.75428 0.70695 0.14864
 C2275 C 0.76047 0.72666 0.15430
 C2276 C 0.76075 0.73240 0.17342
 C2277 C 0.75472 0.71883 0.18749
 C2278 C 0.74883 0.69926 0.18208
 H2279 H 0.73974 0.64089 0.11104
 H2280 H 0.75111 0.69205 0.06060
 H2281 H 0.73619 0.63157 0.07867
 H2282 H 0.75911 0.71772 0.08404
 H2283 H 0.76175 0.72907 0.11601
 H2284 H 0.73754 0.65153 0.13821
 H2285 H 0.73865 0.66305 0.16977
 H2286 H 0.76535 0.73793 0.14434
 H2287 H 0.76559 0.74755 0.17715
 H2288 H 0.74445 0.68836 0.19276
 C2289 C 0.14378 0.59573 0.26548
 C2290 C 0.15138 0.60685 0.25005
 C2291 C 0.14962 0.59795 0.23188
 C2292 C 0.14060 0.57888 0.22946
 C2293 C 0.13276 0.56827 0.24482
 C2294 C 0.13464 0.57688 0.26284
 C2295 C 0.15675 0.60815 0.21614
 C2296 C 0.16556 0.62710 0.21789
 C2297 C 0.16771 0.63674 0.23559
 C2298 C 0.16062 0.62638 0.25197
 C2299 C 0.16313 0.63583 0.26974
 C2300 C 0.17256 0.65443 0.27160
 C2301 C 0.17970 0.66461 0.25586
 C2302 C 0.17709 0.65621 0.23756
 C2303 C 0.18423 0.66762 0.22208
 C2304 C 0.19443 0.68590 0.22490
 C2305 C 0.19782 0.69356 0.24316
 C2306 C 0.18988 0.68300 0.25850
 H2307 H 0.14437 0.60123 0.27978
 H2308 H 0.13965 0.57230 0.21546
 H2309 H 0.12853 0.56928 0.27496
 H2310 H 0.15548 0.60140 0.20222
 H2311 H 0.17074 0.63372 0.20499
 H2312 H 0.15820 0.62912 0.28269
 H2313 H 0.17442 0.66086 0.28562
 H2314 H 0.18243 0.66277 0.20761
 H2315 H 0.20025 0.69370 0.21274
 H2316 H 0.19214 0.68877 0.27274
 C2317 C 0.64149 0.09679 0.76124
 C2318 C 0.65026 0.10838 0.74677
 C2319 C 0.64896 0.10061 0.72813
 C2320 C 0.63977 0.08185 0.72443
 C2321 C 0.63104 0.07058 0.73890
 C2322 C 0.63204 0.07834 0.75732
 C2323 C 0.65676 0.11161 0.71318
 C2324 C 0.66564 0.13035 0.71618
 C2325 C 0.66747 0.13880 0.73445
 C2326 C 0.66011 0.12739 0.75007
 C2327 C 0.66318 0.13518 0.76850
 C2328 C 0.67308 0.15338 0.77161
 C2329 C 0.67998 0.16486 0.75653
 C2330 C 0.67690 0.15803 0.73768
 C2331 C 0.68347 0.17079 0.72289
 C2332 C 0.69350 0.18891 0.72678
 C2333 C 0.69739 0.19507 0.74550
 C2334 C 0.69023 0.18305 0.76028
 H2335 H 0.64124 0.10173 0.77571
 H2336 H 0.63950 0.07600 0.71014
 H2337 H 0.62510 0.07034 0.76877
 H2338 H 0.65587 0.10572 0.69890
 H2339 H 0.67136 0.13766 0.70383
 H2340 H 0.65855 0.12729 0.78100
 H2341 H 0.67537 0.15852 0.78606
 H2342 H 0.68107 0.16728 0.70812
 H2343 H 0.69865 0.19789 0.71501
 H2344 H 0.69285 0.18769 0.77485
 C2345 C 0.85007 0.07320 0.23609
 C2346 C 0.84468 0.08465 0.25202
 C2347 C 0.85213 0.07750 0.27005
 C2348 C 0.86431 0.05971 0.27190
 C2349 C 0.86976 0.04838 0.25597
 C2350 C 0.86223 0.05554 0.23805
 C2351 C 0.84735 0.08806 0.28632
 C2352 C 0.83541 0.10568 0.28517
 C2353 C 0.82756 0.11357 0.26759
 C2354 C 0.83219 0.10283 0.25072
 C2355 C 0.82408 0.11057 0.23316
 C2356 C 0.81192 0.12807 0.23204
 C2357 C 0.80731 0.13873 0.24830
 C2358 C 0.81510 0.13176 0.26632
 C2359 C 0.81003 0.14335 0.28229
 C2360 C 0.79759 0.16078 0.28040
 C2361 C 0.78971 0.16747 0.26258
 C2362 C 0.79481 0.15632 0.24656
 H2363 H 0.84533 0.07754 0.22179
 H2364 H 0.86876 0.05440 0.28608
 H2365 H 0.86630 0.04808 0.22517
 H2366 H 0.85295 0.08264 0.30019
 H2367 H 0.83254 0.11271 0.29849
 H2368 H 0.82676 0.10338 0.21987
 H2369 H 0.80602 0.13332 0.21822
 H2370 H 0.81539 0.13944 0.29652
 H2371 H 0.79411 0.16904 0.29306
 H2372 H 0.78894 0.16125 0.23263
 C2373 C 0.34765 0.59157 0.78511
 C2374 C 0.34121 0.60180 0.76809
 C2375 C 0.34651 0.59271 0.75085
 C2376 C 0.35782 0.57426 0.75085
 C2377 C 0.36461 0.56443 0.76793
 C2378 C 0.35903 0.57345 0.78499
 C2379 C 0.34065 0.60217 0.73361
 C2380 C 0.32966 0.62044 0.73299
 C2381 C 0.32396 0.63017 0.74972
 C2382 C 0.32972 0.62063 0.76758
 C2383 C 0.32375 0.63022 0.78430
 C2384 C 0.31235 0.64825 0.78367
 C2385 C 0.30653 0.65772 0.76642
 C2386 C 0.31246 0.64899 0.74920
 C2387 C 0.30650 0.65949 0.73214
 C2388 C 0.29462 0.67728 0.73220
 C2389 C 0.28822 0.68553 0.74921
 C2390 C 0.29458 0.67577 0.76634
 H2391 H 0.34414 0.59707 0.79890
 H2392 H 0.36208 0.56823 0.73738
 H2393 H 0.36273 0.56619 0.79859
 H2394 H 0.34461 0.59536 0.72034
 H2395 H 0.32575 0.62645 0.71902
 H2396 H 0.32750 0.62410 0.79827
 H2397 H 0.30799 0.65484 0.79691
 H2398 H 0.31064 0.65437 0.71840
 H2399 H 0.29025 0.68447 0.71869
 H2400 H 0.28984 0.68193 0.77963
 C2401 C 0.34030 0.42485 0.70914
 C2402 C 0.34204 0.41053 0.72438
 C2403 C 0.35407 0.41592 0.74060
 C2404 C 0.36404 0.43470 0.74126
 C2405 C 0.36266 0.44828 0.72573
 C2406 C 0.35052 0.44325 0.70984
 C2407 C 0.35643 0.40239 0.75598
 C2408 C 0.34735 0.38350 0.75565
 C2409 C 0.33532 0.37725 0.73985
 C2410 C 0.33245 0.39107 0.72401
 C2411 C 0.32008 0.38496 0.70838
 C2412 C 0.31062 0.36623 0.70827
 C2413 C 0.31313 0.35263 0.72360
 C2414 C 0.32577 0.35779 0.73950
 C2415 C 0.32810 0.34326 0.75450
 C2416 C 0.31740 0.32519 0.75422
 C2417 C 0.30421 0.32058 0.73892
 C2418 C 0.30261 0.33412 0.72334
 H2419 H 0.33146 0.42224 0.69630
 H2420 H 0.37355 0.43841 0.75355
 H2421 H 0.34912 0.45357 0.69770
 H2422 H 0.36555 0.40640 0.76843
 H2423 H 0.35000 0.37418 0.76822
 H2424 H 0.31716 0.39443 0.69595
 H2425 H 0.30106 0.36243 0.69605
 H2426 H 0.33781 0.34545 0.76688
 H2427 H 0.31917 0.31489 0.76635
 H2428 H 0.29241 0.33077 0.71144
 C2429 C 0.84659 0.90232 0.21137
 C2430 C 0.84444 0.89299 0.22929
 C2431 C 0.85251 0.90324 0.24538
 C2432 C 0.86292 0.92166 0.24336
 C2433 C 0.86606 0.93011 0.22528
 C2434 C 0.85715 0.92031 0.20947
 C2435 C 0.85051 0.89484 0.26344
 C2436 C 0.84093 0.87640 0.26594
 C2437 C 0.83294 0.86538 0.25036
 C2438 C 0.83464 0.87387 0.23172
 C2439 C 0.82672 0.86284 0.21612
 C2440 C 0.81734 0.84431 0.21857
 C2441 C 0.81546 0.83584 0.23659
 C2442 C 0.82330 0.84616 0.25277
 C2443 C 0.82107 0.83676 0.27070
 C2444 C 0.81115 0.81833 0.27243
 C2445 C 0.80309 0.80835 0.25644
 C2446 C 0.80558 0.81713 0.23849
 H2447 H 0.84035 0.89619 0.19839
 H2448 H 0.86958 0.92861 0.25590
 H2449 H 0.85785 0.92677 0.19532
 H2450 H 0.85654 0.90257 0.27586
 H2451 H 0.84012 0.87119 0.28040
 H2452 H 0.82753 0.86803 0.20166
 H2453 H 0.81146 0.83652 0.20613
 H2454 H 0.82668 0.84325 0.28377
 H2455 H 0.80969 0.81195 0.28653
 H2456 H 0.79947 0.80965 0.22598
 C2457 C 0.63475 0.90992 0.77787
 C2458 C 0.65441 0.90892 0.77107
 C2459 C 0.66182 0.92684 0.76257
 C2460 C 0.65046 0.94523 0.76221
 C2461 C 0.63128 0.94619 0.76974
 C2462 C 0.62345 0.92814 0.77709
 C2463 C 0.68063 0.92638 0.75463
 C2464 C 0.69216 0.90846 0.75459
 C2465 C 0.68559 0.89026 0.76307
 C2466 C 0.66683 0.89074 0.77219
 C2467 C 0.66139 0.87324 0.78255
 C2468 C 0.67356 0.85570 0.78354
 C2469 C 0.69131 0.85455 0.77376
 C2470 C 0.69736 0.87170 0.76305
 C2471 C 0.71470 0.86937 0.75233
 C2472 C 0.72556 0.85096 0.75244
 C2473 C 0.71989 0.83429 0.76345
 C2474 C 0.70286 0.83622 0.77431
 H2475 H 0.62749 0.89677 0.78355
 H2476 H 0.65685 0.95893 0.75644
 H2477 H 0.60840 0.92800 0.78232
 H2478 H 0.68647 0.94001 0.74819
 H2479 H 0.70656 0.90957 0.74832
 H2480 H 0.64800 0.87283 0.79057
 H2481 H 0.66883 0.84273 0.79181
 H2482 H 0.71989 0.88124 0.74316
 H2483 H 0.73855 0.84970 0.74376
 H2484 H 0.69815 0.82321 0.78253
 C2485 C 0.13910 0.40766 0.28132
 C2486 C 0.15855 0.40731 0.27404
 C2487 C 0.16579 0.42588 0.26667
 C2488 C 0.15446 0.44419 0.26785
 C2489 C 0.13545 0.44440 0.27574
 C2490 C 0.12780 0.42579 0.28201
 C2491 C 0.18434 0.42610 0.25824
 C2492 C 0.19569 0.40824 0.25651
 C2493 C 0.18923 0.38940 0.26375
 C2494 C 0.17085 0.38914 0.27350
 C2495 C 0.16564 0.37087 0.28277
 C2496 C 0.17757 0.35326 0.28198
 C2497 C 0.19481 0.35288 0.27144
 C2498 C 0.20069 0.37085 0.26186
 C2499 C 0.21748 0.36931 0.25028
 C2500 C 0.22788 0.35080 0.24840
 C2501 C 0.22233 0.33333 0.25831
 C2502 C 0.20594 0.33449 0.27004
 H2503 H 0.13195 0.39406 0.28617
 H2504 H 0.16067 0.45833 0.26286
 H2505 H 0.11285 0.42511 0.28741
 H2506 H 0.19007 0.44023 0.25268
 H2507 H 0.20988 0.40982 0.24991
 H2508 H 0.15263 0.36985 0.29126
 H2509 H 0.17301 0.33965 0.28942
 H2510 H 0.22246 0.38193 0.24187
 H2511 H 0.24032 0.35009 0.23902
 H2512 H 0.20128 0.32083 0.27735
 C2513 C 0.09797 0.25266 0.86209
 C2514 C 0.10366 0.26673 0.84795
 C2515 C 0.09051 0.28357 0.84351
 C2516 C 0.07269 0.28617 0.85297
 C2517 C 0.06735 0.27217 0.86687
 C2518 C 0.08005 0.25540 0.87135
 C2519 C 0.09501 0.29769 0.82952
 C2520 C 0.11208 0.29523 0.81927
 C2521 C 0.12548 0.27850 0.82273
 C2522 C 0.12164 0.26447 0.83782
 C2523 C 0.13593 0.24873 0.84228
 C2524 C 0.15300 0.24629 0.83194
 C2525 C 0.15636 0.25917 0.81660
 C2526 C 0.14265 0.27540 0.81167
 C2527 C 0.14653 0.28762 0.79560
 C2528 C 0.16344 0.28401 0.78516
 C2529 C 0.17701 0.26809 0.79026
 C2530 C 0.17338 0.25575 0.80605
 H2531 H 0.10676 0.23920 0.86610
 H2532 H 0.06263 0.29894 0.84913
 H2533 H 0.07611 0.24437 0.88207
 H2534 H 0.08509 0.31072 0.82629
 H2535 H 0.11445 0.30697 0.80884
 H2536 H 0.13453 0.23812 0.85390
 H2537 H 0.16356 0.23397 0.83586
 H2538 H 0.13667 0.29986 0.79041
 H2539 H 0.16577 0.29371 0.77293
 H2540 H 0.18375 0.24333 0.81014
 C2541 C 0.58160 0.77981 0.33997
 C2542 C 0.59577 0.76364 0.34349
 C2543 C 0.59162 0.74898 0.35768
 C2544 C 0.57379 0.75028 0.36742
 C2545 C 0.55987 0.76617 0.36347
 C2546 C 0.56396 0.78098 0.34982
 C2547 C 0.60524 0.73307 0.36214
 C2548 C 0.62313 0.73135 0.35293
 C2549 C 0.62801 0.74545 0.33862
 C2550 C 0.61391 0.76161 0.33354
 C2551 C 0.61826 0.77503 0.31852
 C2552 C 0.63591 0.77304 0.30901
 C2553 C 0.65001 0.75776 0.31411
 C2554 C 0.64642 0.74380 0.32905
 C2555 C 0.66153 0.72885 0.33381
 C2556 C 0.67913 0.72769 0.32389
 C2557 C 0.68235 0.74135 0.30895
 C2558 C 0.66773 0.75641 0.30422
 H2559 H 0.58367 0.79195 0.32987
 H2560 H 0.57082 0.73903 0.37830
 H2561 H 0.55333 0.79341 0.34659
 H2562 H 0.60208 0.72182 0.37296
 H2563 H 0.63267 0.71852 0.35724
 H2564 H 0.60819 0.78716 0.31348
 H2565 H 0.63857 0.78366 0.29752
 H2566 H 0.66040 0.71791 0.34520
 H2567 H 0.69025 0.71595 0.32796
 H2568 H 0.67011 0.76721 0.29280
 C2569 C 0.55266 0.21378 0.18181
 C2570 C 0.56816 0.22757 0.17801
 C2571 C 0.56490 0.24140 0.16248
 C2572 C 0.54707 0.24112 0.15122
 C2573 C 0.53229 0.22692 0.15482
 C2574 C 0.53509 0.21346 0.17030
 C2575 C 0.57964 0.25515 0.15790
 C2576 C 0.59803 0.25498 0.16786
 C2577 C 0.60240 0.24099 0.18294
 C2578 C 0.58693 0.22770 0.18867
 C2579 C 0.59079 0.21494 0.20477
 C2580 C 0.60933 0.21467 0.21458
 C2581 C 0.62486 0.22678 0.20859
 C2582 C 0.62172 0.23999 0.19259
 C2583 C 0.63821 0.25137 0.18669
 C2584 C 0.65669 0.25023 0.19669
 C2585 C 0.65951 0.23762 0.21281
 C2586 C 0.64356 0.22576 0.21857
 H2587 H 0.55382 0.20262 0.19316
 H2588 H 0.54511 0.25136 0.13905
 H2589 H 0.52374 0.20242 0.17335
 H2590 H 0.57706 0.26599 0.14625
 H2591 H 0.60846 0.26624 0.16343
 H2592 H 0.57969 0.20508 0.21037
 H2593 H 0.61160 0.20466 0.22688
 H2594 H 0.63753 0.26110 0.17425
 H2595 H 0.66885 0.25931 0.19167
 H2596 H 0.64561 0.21585 0.23097
 C2597 C 0.06341 0.76016 0.63807
 C2598 C 0.07003 0.74707 0.65336
 C2599 C 0.05806 0.73005 0.65746
 C2600 C 0.04058 0.72622 0.64644
 C2601 C 0.03469 0.73894 0.63104
 C2602 C 0.04603 0.75608 0.62713
 C2603 C 0.06370 0.71668 0.67233
 C2604 C 0.08143 0.71930 0.68294
 C2605 C 0.09433 0.73553 0.67908
 C2606 C 0.08826 0.74998 0.66439
 C2607 C 0.10074 0.76670 0.66110
 C2608 C 0.11883 0.76890 0.67126
 C2609 C 0.12529 0.75457 0.68506
 C2610 C 0.11317 0.73772 0.68931
 C2611 C 0.12066 0.72358 0.70340
 C2612 C 0.13933 0.72612 0.71271
 C2613 C 0.15121 0.74277 0.70835
 C2614 C 0.14401 0.75698 0.69455
 H2615 H 0.07146 0.77342 0.63386
 H2616 H 0.03161 0.71311 0.64972
 H2617 H 0.04176 0.76607 0.61520
 H2618 H 0.05442 0.70381 0.67565
 H2619 H 0.08457 0.70820 0.69411
 H2620 H 0.09702 0.77848 0.65068
 H2621 H 0.12799 0.78191 0.66811
 H2622 H 0.11268 0.71021 0.70746
 H2623 H 0.14450 0.71485 0.72329
 H2624 H 0.15303 0.76996 0.69101
 C2625 C 0.89226 0.75023 0.61931
 C2626 C 0.88517 0.76670 0.63003
 C2627 C 0.89366 0.78606 0.62711
 C2628 C 0.90918 0.78846 0.61452
 C2629 C 0.91772 0.77144 0.60574
 C2630 C 0.90839 0.75254 0.60763
 C2631 C 0.88768 0.80267 0.63777
 C2632 C 0.87499 0.80004 0.65264
 C2633 C 0.86741 0.78070 0.65704
 C2634 C 0.87112 0.76424 0.64452
 C2635 C 0.86120 0.74571 0.64733
 C2636 C 0.84948 0.74274 0.66282
 C2637 C 0.84750 0.75794 0.67623
 C2638 C 0.85636 0.77717 0.67359
 C2639 C 0.85441 0.79178 0.68801
 C2640 C 0.84340 0.78764 0.70395
 C2641 C 0.83408 0.76884 0.70606
 C2642 C 0.83652 0.75397 0.69224
 H2643 H 0.88662 0.73501 0.62054
 H2644 H 0.91612 0.80323 0.61358
 H2645 H 0.91382 0.73925 0.60033
 H2646 H 0.89370 0.81766 0.63526
 H2647 H 0.87137 0.81350 0.66049
 H2648 H 0.86205 0.73319 0.63767
 H2649 H 0.84227 0.72819 0.66454
 H2650 H 0.86141 0.80644 0.68752
 H2651 H 0.84178 0.79942 0.71439
 H2652 H 0.82949 0.73929 0.69371
 C2653 C 0.40098 0.30078 0.12773
 C2654 C 0.38855 0.28354 0.12835
 C2655 C 0.39435 0.26606 0.11815
 C2656 C 0.41264 0.26547 0.10911
 C2657 C 0.42585 0.28173 0.11076
 C2658 C 0.41945 0.29974 0.11923
 C2659 C 0.38264 0.24870 0.11822
 C2660 C 0.36664 0.24732 0.13005
 C2661 C 0.36179 0.26341 0.14220
 C2662 C 0.37170 0.28240 0.14009
 C2663 C 0.36520 0.29921 0.15064
 C2664 C 0.35129 0.29693 0.16450
 C2665 C 0.34339 0.27788 0.16834
 C2666 C 0.34799 0.26095 0.15692
 C2667 C 0.33948 0.24198 0.16146
 C2668 C 0.32724 0.23997 0.17685
 C2669 C 0.32324 0.25668 0.18828
 C2670 C 0.33115 0.27564 0.18381
 H2671 H 0.39768 0.31477 0.13485
 H2672 H 0.41738 0.25167 0.10213
 H2673 H 0.42937 0.31257 0.12063
 H2674 H 0.38659 0.23558 0.10987
 H2675 H 0.35866 0.23320 0.12969
 H2676 H 0.37085 0.31434 0.14877
 H2677 H 0.34723 0.31008 0.17276
 H2678 H 0.34236 0.22825 0.15375
 H2679 H 0.32105 0.22520 0.17995
 H2680 H 0.32767 0.28877 0.19234
 C2681 C 0.41292 0.73811 0.37566
 C2682 C 0.40472 0.72460 0.36203
 C2683 C 0.41680 0.70770 0.35684
 C2684 C 0.43634 0.70489 0.36466
 C2685 C 0.44451 0.71898 0.37736
 C2686 C 0.43256 0.73535 0.38308
 C2687 C 0.40968 0.69408 0.34330
 C2688 C 0.39140 0.69769 0.33359
 C2689 C 0.37944 0.71508 0.33725
 C2690 C 0.38548 0.72790 0.35260
 C2691 C 0.37231 0.74384 0.35769
 C2692 C 0.35463 0.74818 0.34715
 C2693 C 0.34960 0.73710 0.33100
 C2694 C 0.36181 0.72028 0.32585
 C2695 C 0.35636 0.70997 0.30898
 C2696 C 0.33961 0.71623 0.29773
 C2697 C 0.32768 0.73290 0.30288
 C2698 C 0.33262 0.74307 0.31970
 H2699 H 0.40493 0.75144 0.38030
 H2700 H 0.44564 0.69233 0.35997
 H2701 H 0.43860 0.74630 0.39305
 H2702 H 0.41865 0.68083 0.33968
 H2703 H 0.38704 0.68650 0.32326
 H2704 H 0.37522 0.75328 0.36983
 H2705 H 0.34510 0.76077 0.35137
 H2706 H 0.36508 0.69746 0.30368
 H2707 H 0.33617 0.70806 0.28480
 H2708 H 0.32345 0.75595 0.32391
 C2709 C 0.91692 0.25607 0.86862
 C2710 C 0.90818 0.24194 0.85587
 C2711 C 0.91959 0.22416 0.85181
 C2712 C 0.93880 0.22078 0.86029
 C2713 C 0.94728 0.23512 0.87255
 C2714 C 0.93619 0.25268 0.87673
 C2715 C 0.91201 0.20999 0.83901
 C2716 C 0.89365 0.21347 0.82937
 C2717 C 0.88199 0.23124 0.83238
 C2718 C 0.88886 0.24515 0.84658
 C2719 C 0.87619 0.26179 0.85097
 C2720 C 0.85789 0.26531 0.84121
 C2721 C 0.85166 0.25269 0.82647
 C2722 C 0.86363 0.23554 0.82173
 C2723 C 0.85695 0.22372 0.80615
 C2724 C 0.83903 0.22860 0.79602
 C2725 C 0.82713 0.24536 0.80101
 C2726 C 0.83355 0.25730 0.81632
 H2727 H 0.90959 0.27019 0.87222
 H2728 H 0.94751 0.20730 0.85680
 H2729 H 0.94253 0.26392 0.88625
 H2730 H 0.92055 0.19622 0.83611
 H2731 H 0.88889 0.20170 0.81979
 H2732 H 0.87984 0.27229 0.86213
 H2733 H 0.84867 0.27830 0.84503
 H2734 H 0.86540 0.21089 0.80109
 H2735 H 0.83452 0.21913 0.78418
 H2736 H 0.82456 0.27041 0.82026
 C2737 C 0.56664 1.04582 0.66957
 C2738 C 0.56393 1.02700 0.66039
 C2739 C 0.57296 1.00939 0.66931
 C2740 C 0.58396 1.01071 0.68675
 C2741 C 0.58692 1.02959 0.69565
 C2742 C 0.57790 1.04705 0.68669
 C2743 C 0.57129 0.99050 0.66063
 C2744 C 0.56152 0.98874 0.64295
 C2745 C 0.55268 1.00588 0.63323
 C2746 C 0.55306 1.02515 0.64248
 C2747 C 0.54263 1.04188 0.63349
 C2748 C 0.53301 1.04014 0.61571
 C2749 C 0.53370 1.02183 0.60594
 C2750 C 0.54356 1.00442 0.61452
 C2751 C 0.54459 0.98647 0.60365
 C2752 C 0.53666 0.98609 0.58503
 C2753 C 0.52707 1.00336 0.57663
 C2754 C 0.52517 1.02106 0.58734
 H2755 H 0.56056 1.06004 0.66376
 H2756 H 0.59114 0.99697 0.69272
 H2757 H 0.57879 1.06189 0.69312
 H2758 H 0.57793 0.97689 0.66746
 H2759 H 0.56094 0.97356 0.63737
 H2760 H 0.54142 1.05661 0.63994
 H2761 H 0.52537 1.05348 0.60933
 H2762 H 0.55217 0.97267 0.60878
 H2763 H 0.53842 0.97228 0.57697
 H2764 H 0.51811 1.03461 0.58079
 C2765 C 0.06081 0.54316 1.18170
 C2766 C 0.05980 0.52496 1.17117
 C2767 C 0.07088 0.50770 1.17859
 C2768 C 0.08297 0.50900 1.19535
 C2769 C 0.08433 0.52732 1.20522
 C2770 C 0.07284 0.54424 1.19838
 C2771 C 0.07016 0.48925 1.16911
 C2772 C 0.05916 0.48755 1.15209
 C2773 C 0.04848 0.50441 1.14362
 C2774 C 0.04856 0.52338 1.15343
 C2775 C 0.03788 0.54024 1.14493
 C2776 C 0.02818 0.53892 1.12716
 C2777 C 0.02858 0.52079 1.11712
 C2778 C 0.03831 0.50313 1.12536
 C2779 C 0.03806 0.48507 1.11460
 C2780 C 0.02994 0.48506 1.09607
 C2781 C 0.02137 0.50283 1.08765
 C2782 C 0.02000 0.52046 1.09852
 H2783 H 0.05258 0.55690 1.17748
 H2784 H 0.09182 0.49579 1.20041
 H2785 H 0.07310 0.55847 1.20597
 H2786 H 0.07843 0.47595 1.17482
 H2787 H 0.05970 0.47274 1.14576
 H2788 H 0.03707 0.55495 1.15144
 H2789 H 0.02063 0.55242 1.12103
 H2790 H 0.04450 0.47076 1.11978
 H2791 H 0.03090 0.47113 1.08805
 H2792 H 0.01339 0.53428 1.09212
 C2793 C -0.08637 -0.04418 1.15202
 C2794 C -0.06776 -0.03459 1.15043
 C2795 C -0.06097 -0.02217 1.16556
 C2796 C -0.07161 -0.02122 1.18243
 C2797 C -0.08941 -0.03230 1.18448
 C2798 C -0.09692 -0.04294 1.16853
 C2799 C -0.04351 -0.01094 1.16376
 C2800 C -0.03296 -0.01142 1.14711
 C2801 C -0.03902 -0.02390 1.13182
 C2802 C -0.05609 -0.03648 1.13401
 C2803 C -0.06075 -0.05091 1.11992
 C2804 C -0.05019 -0.05190 1.10348
 C2805 C -0.03478 -0.03840 1.10026
 C2806 C -0.02875 -0.02428 1.11437
 C2807 C -0.01338 -0.01053 1.10995
 C2808 C -0.00529 -0.01020 1.09194
 C2809 C -0.01179 -0.02393 1.07812
 C2810 C -0.02604 -0.03836 1.08255
 H2811 H -0.09355 -0.05230 1.14049
 H2812 H -0.06534 -0.01258 1.19414
 H2813 H -0.11144 -0.05009 1.16842
 H2814 H -0.03810 -0.00139 1.17523
 H2815 H -0.01976 -0.00219 1.14681
 H2816 H -0.07233 -0.06200 1.12138
 H2817 H -0.05454 -0.06300 1.09291
 H2818 H -0.00815 0.00092 1.11968
 H2819 H 0.00535 0.00142 1.08850
 H2820 H -0.03142 -0.04865 1.07161
 C2821 C 0.42546 0.51156 0.66775
 C2822 C 0.43307 0.49432 0.65831
 C2823 C 0.43079 0.47498 0.66700
 C2824 C 0.41981 0.47298 0.68343
 C2825 C 0.41119 0.49007 0.69211
 C2826 C 0.41493 0.50945 0.68439
 C2827 C 0.43926 0.45760 0.65914
 C2828 C 0.44959 0.45884 0.64253
 C2829 C 0.45136 0.47755 0.63268
 C2830 C 0.44265 0.49555 0.64053
 C2831 C 0.44294 0.51394 0.62991
 C2832 C 0.45090 0.51466 0.61205
 C2833 C 0.45946 0.49729 0.60425
 C2834 C 0.46063 0.47868 0.61475
 C2835 C 0.47067 0.46189 0.60661
 C2836 C 0.47765 0.46315 0.58824
 C2837 C 0.47487 0.48108 0.57737
 C2838 C 0.46631 0.49828 0.58571
 H2839 H 0.42740 0.52693 0.66267
 H2840 H 0.41847 0.45791 0.68970
 H2841 H 0.40877 0.52313 0.69049
 H2842 H 0.43773 0.44276 0.66584
 H2843 H 0.45527 0.44459 0.63730
 H2844 H 0.43624 0.52795 0.63463
 H2845 H 0.45011 0.52897 0.60414
 H2846 H 0.47324 0.44752 0.61399
 H2847 H 0.48443 0.44971 0.58221
 H2848 H 0.46447 0.51239 0.57754
 C2849 C 0.42779 0.49618 -0.17280
 C2850 C 0.43950 0.51170 -0.16428
 C2851 C 0.43971 0.53085 -0.17384
 C2852 C 0.42790 0.53441 -0.19064
 C2853 C 0.41572 0.51912 -0.19838
 C2854 C 0.41613 0.49990 -0.18950
 C2855 C 0.45141 0.54650 -0.16643
 C2856 C 0.46257 0.54386 -0.14942
 C2857 C 0.46228 0.52541 -0.13888
 C2858 C 0.45061 0.50902 -0.14649
 C2859 C 0.44988 0.49074 -0.13576
 C2860 C 0.45945 0.48873 -0.11796
 C2861 C 0.47045 0.50466 -0.11017
 C2862 C 0.47264 0.52301 -0.12067
 C2863 C 0.48472 0.53831 -0.11216
 C2864 C 0.49303 0.53586 -0.09364
 C2865 C 0.48957 0.51819 -0.08303
 C2866 C 0.47875 0.50245 -0.09162
 H2867 H 0.42709 0.48100 -0.16690
 H2868 H 0.42805 0.54922 -0.19766
 H2869 H 0.40691 0.48781 -0.19518
 H2870 H 0.45175 0.56113 -0.17376
 H2871 H 0.47089 0.55687 -0.14464
 H2872 H 0.44150 0.47774 -0.14043
 H2873 H 0.45795 0.47459 -0.11005
 H2874 H 0.48779 0.55247 -0.11928
 H2875 H 0.50143 0.54822 -0.08732
 H2876 H 0.47630 0.48856 -0.08359
 C2877 C -0.06784 0.98581 0.32148
 C2878 C -0.05627 1.00192 0.32912
 C2879 C -0.05586 1.02031 0.31833
 C2880 C -0.06724 1.02254 0.30108
 C2881 C -0.07919 1.00666 0.29413
 C2882 C -0.07906 0.98822 0.30436
 C2883 C -0.04440 1.03652 0.32496
 C2884 C -0.03372 1.03522 0.34234
 C2885 C -0.03417 1.01757 0.35401
 C2886 C -0.04550 1.00057 0.34720
 C2887 C -0.04619 0.98300 0.35893
 C2888 C -0.03702 0.98232 0.37695
 C2889 C -0.02648 0.99891 0.38401
 C2890 C -0.02428 1.01657 0.37254
 C2891 C -0.01270 1.03261 0.38041
 C2892 C -0.00495 1.03158 0.39923
 C2893 C -0.00847 1.01460 0.41075
 C2894 C -0.01870 0.99809 0.40282
 H2895 H -0.06881 0.97117 0.32842
 H2896 H -0.06690 1.03677 0.29310
 H2897 H -0.08817 0.97571 0.29938
 H2898 H -0.04390 1.05057 0.31671
 H2899 H -0.02557 1.04859 0.34644
 H2900 H -0.05417 0.96954 0.35484
 H2901 H -0.03850 0.96868 0.38562
 H2902 H -0.00971 1.04635 0.37259
 H2903 H 0.00293 1.04453 0.40505
 H2904 H -0.02125 0.98475 0.41159
 C2905 C 0.07234 0.50589 0.33712
 C2906 C 0.06124 0.48909 0.34356
 C2907 C 0.06305 0.47052 0.33371
 C2908 C 0.07535 0.46907 0.31806
 C2909 C 0.08634 0.48584 0.31200
 C2910 C 0.08461 0.50421 0.32167
 C2911 C 0.05277 0.45339 0.33966
 C2912 C 0.04120 0.45401 0.35558
 C2913 C 0.03920 0.47198 0.36615
 C2914 C 0.04891 0.48998 0.35967
 C2915 C 0.04614 0.50824 0.36963
 C2916 C 0.03551 0.50871 0.38604
 C2917 C 0.02705 0.49110 0.39317
 C2918 C 0.02821 0.47255 0.38321
 C2919 C 0.01885 0.45530 0.39120
 C2920 C 0.00994 0.45634 0.40885
 C2921 C 0.01009 0.47452 0.41894
 C2922 C 0.01802 0.49194 0.41066
 H2923 H 0.07229 0.52047 0.34391
 H2924 H 0.07635 0.45481 0.31055
 H2925 H 0.09314 0.51731 0.31754
 H2926 H 0.05399 0.43917 0.33210
 H2927 H 0.03404 0.44002 0.35931
 H2928 H 0.05212 0.52258 0.36522
 H2929 H 0.03427 0.52301 0.39346
 H2930 H 0.01873 0.44065 0.38452
 H2931 H 0.00387 0.44269 0.41503
 H2932 H 0.01790 0.50616 0.41834
 C2933 C 0.57342 0.01386 -0.17043
 C2934 C 0.56108 -0.00156 -0.16322
 C2935 C 0.56048 -0.02035 -0.17290
 C2936 C 0.57206 -0.02348 -0.18884
 C2937 C 0.58444 -0.00813 -0.19554
 C2938 C 0.58483 0.01056 -0.18626
 C2939 C 0.54850 -0.03602 -0.16652
 C2940 C 0.53741 -0.03376 -0.15042
 C2941 C 0.53788 -0.01560 -0.13992
 C2942 C 0.54969 0.00087 -0.14659
 C2943 C 0.55006 0.01910 -0.13621
 C2944 C 0.54019 0.02090 -0.11944
 C2945 C 0.52932 0.00478 -0.11236
 C2946 C 0.52742 -0.01352 -0.12265
 C2947 C 0.51557 -0.02909 -0.11485
 C2948 C 0.50722 -0.02692 -0.09707
 C2949 C 0.51038 -0.00925 -0.08658
 C2950 C 0.52087 0.00675 -0.09464
 H2951 H 0.57486 0.02862 -0.16412
 H2952 H 0.57141 -0.03793 -0.19610
 H2953 H 0.59437 0.02263 -0.19102
 H2954 H 0.54787 -0.05037 -0.17394
 H2955 H 0.52883 -0.04674 -0.14640
 H2956 H 0.55817 0.03231 -0.14044
 H2957 H 0.54140 0.03503 -0.11172
 H2958 H 0.51287 -0.04331 -0.12186
 H2959 H 0.49910 -0.03948 -0.09113
 H2960 H 0.52310 0.02065 -0.08672
 C2961 C 0.68026 0.59656 0.03051
 C2962 C 0.66895 0.59683 0.01309
 C2963 C 0.67449 0.61084 -0.00113
 C2964 C 0.69135 0.62343 0.00191
 C2965 C 0.70218 0.62334 0.01958
 C2966 C 0.69628 0.60957 0.03366
 C2967 C 0.66282 0.61257 -0.01809
 C2968 C 0.64540 0.60126 -0.02094
 C2969 C 0.63930 0.58711 -0.00716
 C2970 C 0.65192 0.58414 0.00968
 C2971 C 0.64716 0.56854 0.02261
 C2972 C 0.62991 0.55728 0.02001
 C2973 C 0.61658 0.56111 0.00454
 C2974 C 0.62102 0.57584 -0.00948
 C2975 C 0.60659 0.57896 -0.02478
 C2976 C 0.58834 0.56839 -0.02559
 C2977 C 0.58395 0.55440 -0.01121
 C2978 C 0.59853 0.55050 0.00343
 H2979 H 0.67681 0.58687 0.04234
 H2980 H 0.69516 0.63416 -0.00911
 H2981 H 0.70451 0.60821 0.04722
 H2982 H 0.66689 0.62321 -0.02910
 H2983 H 0.63709 0.60375 -0.03427
 H2984 H 0.65663 0.56440 0.03489
 H2985 H 0.62673 0.54569 0.03051
 H2986 H 0.60864 0.58999 -0.03597
 H2987 H 0.57736 0.57176 -0.03706
 H2988 H 0.59553 0.53947 0.01451
 C2989 C 0.17601 1.10461 0.52580
 C2990 C 0.16450 1.10351 0.50847
 C2991 C 0.17052 1.11567 0.49302
 C2992 C 0.18763 1.12798 0.49495
 C2993 C 0.19880 1.12881 0.51228
 C2994 C 0.19275 1.11700 0.52759
 C2995 C 0.15933 1.11559 0.47580
 C2996 C 0.14206 1.10403 0.47360
 C2997 C 0.13537 1.09170 0.48853
 C2998 C 0.14712 1.09106 0.50610
 C2999 C 0.14113 1.07795 0.52074
 C3000 C 0.12386 1.06663 0.51877
 C3001 C 0.11175 1.06778 0.50216
 C3002 C 0.11730 1.08006 0.48664
 C3003 C 0.10423 1.08033 0.47012
 C3004 C 0.08621 1.06944 0.46949
 C3005 C 0.08065 1.05795 0.48523
 C3006 C 0.09386 1.05689 0.50129
 H3007 H 0.17242 1.09631 0.53843
 H3008 H 0.19204 1.13723 0.48303
 H3009 H 0.20119 1.11713 0.54107
 H3010 H 0.16384 1.12480 0.46390
 H3011 H 0.13427 1.10502 0.45990
 H3012 H 0.14952 1.07595 0.53404
 H3013 H 0.11978 1.05700 0.53056
 H3014 H 0.10724 1.08917 0.45763
 H3015 H 0.07632 1.07056 0.45689
 H3016 H 0.08997 1.04780 0.51351
 C3017 C 0.16231 -0.11790 0.96486
 C3018 C 0.15227 -0.11511 0.98194
 C3019 C 0.16124 -0.12409 0.99874
 C3020 C 0.17937 -0.13555 0.99820
 C3021 C 0.18899 -0.13823 0.98107
 C3022 C 0.18026 -0.12919 0.96452
 C3023 C 0.15214 -0.12152 1.01600
 C3024 C 0.13438 -0.11009 1.01708
 C3025 C 0.12480 -0.10082 1.00080
 C3026 C 0.13381 -0.10358 0.98290
 C3027 C 0.12402 -0.09480 0.96651
 C3028 C 0.10633 -0.08350 0.96747
 C3029 C 0.09751 -0.08041 0.98474
 C3030 C 0.10647 -0.08895 1.00172
 C3031 C 0.09662 -0.08511 1.01880
 C3032 C 0.07870 -0.07344 1.01882
 C3033 C 0.06996 -0.06519 1.00189
 C3034 C 0.07962 -0.06879 0.98495
 H3035 H 0.15697 -0.11136 0.95146
 H3036 H 0.18595 -0.14246 1.01113
 H3037 H 0.18759 -0.13043 0.95118
 H3038 H 0.15889 -0.12835 1.02890
 H3039 H 0.12845 -0.10890 1.03097
 H3040 H 0.12954 -0.09645 0.95251
 H3041 H 0.09943 -0.07708 0.95445
 H3042 H 0.10236 -0.09085 1.03239
 H3043 H 0.07164 -0.07095 1.03215
 H3044 H 0.07321 -0.06252 0.97167
 C3045 C 0.64242 0.36535 0.46961
 C3046 C 0.63523 0.37207 0.48704
 C3047 C 0.64863 0.37073 0.50315
 C3048 C 0.66814 0.36223 0.50181
 C3049 C 0.67532 0.35559 0.48430
 C3050 C 0.66191 0.35744 0.46829
 C3051 C 0.64257 0.37812 0.52052
 C3052 C 0.62379 0.38756 0.52209
 C3053 C 0.60995 0.38944 0.50639
 C3054 C 0.61546 0.38065 0.48882
 C3055 C 0.60098 0.38062 0.47361
 C3056 C 0.58233 0.39010 0.47495
 C3057 C 0.57734 0.40014 0.49141
 C3058 C 0.59083 0.39984 0.50751
 C3059 C 0.58473 0.41051 0.52375
 C3060 C 0.56640 0.42158 0.52356
 C3061 C 0.55356 0.42227 0.50727
 C3062 C 0.55899 0.41092 0.49152
 H3063 H 0.63366 0.36679 0.45644
 H3064 H 0.67739 0.36054 0.51474
 H3065 H 0.66652 0.35384 0.45423
 H3066 H 0.65268 0.37703 0.53299
 H3067 H 0.62044 0.39307 0.53593
 H3068 H 0.60348 0.37313 0.46043
 H3069 H 0.57184 0.38993 0.46276
 H3070 H 0.59408 0.41119 0.53657
 H3071 H 0.56263 0.43020 0.53593
 H3072 H 0.54911 0.41098 0.47887
 C3073 C -0.18550 0.41157 0.51910
 C3074 C -0.17221 0.40708 0.50453
 C3075 C -0.17580 0.38932 0.49375
 C3076 C -0.19236 0.37695 0.49732
 C3077 C -0.20508 0.38157 0.51206
 C3078 C -0.20151 0.39899 0.52277
 C3079 C -0.16257 0.38375 0.47982
 C3080 C -0.14539 0.39495 0.47681
 C3081 C -0.14098 0.41257 0.48736
 C3082 C -0.15514 0.41921 0.50082
 C3083 C -0.15173 0.43772 0.51025
 C3084 C -0.13435 0.44853 0.50791
 C3085 C -0.11966 0.44144 0.49605
 C3086 C -0.12280 0.42367 0.48521
 C3087 C -0.10723 0.41752 0.47324
 C3088 C -0.08905 0.42803 0.47295
 C3089 C -0.08588 0.44493 0.48452
 C3090 C -0.10155 0.45187 0.49551
 H3091 H -0.18364 0.42433 0.52839
 H3092 H -0.19495 0.36334 0.48910
 H3093 H -0.21120 0.40289 0.53417
 H3094 H -0.16525 0.37027 0.47145
 H3095 H -0.13583 0.38941 0.46602
 H3096 H -0.16228 0.44442 0.51960
 H3097 H -0.13218 0.46241 0.51584
 H3098 H -0.10833 0.40427 0.46445
 H3099 H -0.07714 0.42237 0.46434
 H3100 H -0.09936 0.46516 0.50428
 C3101 C 0.32476 -0.08985 0.01946
 C3102 C 0.33680 -0.09177 0.00351
 C3103 C 0.33327 -0.10850 -0.00862
 C3104 C 0.31782 -0.12229 -0.00505
 C3105 C 0.30620 -0.12012 0.01094
 C3106 C 0.30984 -0.10379 0.02305
 C3107 C 0.34542 -0.11159 -0.02399
 C3108 C 0.36150 -0.09890 -0.02722
 C3109 C 0.36578 -0.08217 -0.01543
 C3110 C 0.35261 -0.07805 -0.00036
 C3111 C 0.35569 -0.06034 0.01042
 C3112 C 0.37199 -0.04802 0.00774
 C3113 C 0.38590 -0.05275 -0.00577
 C3114 C 0.38291 -0.06956 -0.01791
 C3115 C 0.39766 -0.07332 -0.03147
 C3116 C 0.41505 -0.06156 -0.03205
 C3117 C 0.41821 -0.04574 -0.01923
 C3118 C 0.40317 -0.04102 -0.00666
 H3119 H 0.32680 -0.07808 0.02981
 H3120 H 0.31522 -0.13504 -0.01438
 H3121 H 0.30101 -0.10175 0.03543
 H3122 H 0.34276 -0.12426 -0.03340
 H3123 H 0.37031 -0.10255 -0.03920
 H3124 H 0.34568 -0.05544 0.02109
 H3125 H 0.37398 -0.03486 0.01670
 H3126 H 0.39660 -0.08569 -0.04131
 H3127 H 0.42648 -0.06552 -0.04190
 H3128 H 0.40533 -0.02857 0.00314
 C3129 C 0.33610 1.09947 0.46871
 C3130 C 0.34840 1.09847 0.48562
 C3131 C 0.34347 1.11177 0.50046
 C3132 C 0.32645 1.12493 0.49848
 C3133 C 0.31451 1.12565 0.48156
 C3134 C 0.31955 1.11283 0.46678
 C3135 C 0.35572 1.11206 0.51705
 C3136 C 0.37309 1.09985 0.51908
 C3137 C 0.37869 1.08637 0.50472
 C3138 C 0.36566 1.08514 0.48805
 C3139 C 0.37025 1.07054 0.47433
 C3140 C 0.38758 1.05853 0.47609
 C3141 C 0.40111 1.06050 0.49155
 C3142 C 0.39689 1.07413 0.50631
 C3143 C 0.41138 1.07517 0.52169
 C3144 C 0.42951 1.06374 0.52185
 C3145 C 0.43372 1.05098 0.50674
 C3146 C 0.41911 1.04908 0.49198
 H3147 H 0.33906 1.09052 0.45644
 H3148 H 0.32277 1.13502 0.50991
 H3149 H 0.31053 1.11305 0.45361
 H3150 H 0.35204 1.12214 0.52848
 H3151 H 0.38181 1.10121 0.53222
 H3152 H 0.36062 1.06781 0.46201
 H3153 H 0.39060 1.04778 0.46499
 H3154 H 0.40943 1.08509 0.53353
 H3155 H 0.44053 1.06548 0.53344
 H3156 H 0.42199 1.03896 0.48034
 C3157 C -0.15561 0.61779 0.97568
 C3158 C -0.14453 0.61408 0.99301
 C3159 C -0.15318 0.62082 1.00987
 C3160 C -0.17162 0.63198 1.00905
 C3161 C -0.18193 0.63628 0.99156
 C3162 C -0.17386 0.62860 0.97505
 C3163 C -0.14336 0.61638 1.02741
 C3164 C -0.12524 0.60525 1.02863
 C3165 C -0.11579 0.59859 1.01222
 C3166 C -0.12536 0.60368 0.99411
 C3167 C -0.11527 0.59861 0.97762
 C3168 C -0.09696 0.58817 0.97862
 C3169 C -0.08791 0.58219 0.99605
 C3170 C -0.09702 0.58721 1.01317
 C3171 C -0.08698 0.58036 1.03037
 C3172 C -0.06888 0.56885 1.03035
 C3173 C -0.06011 0.56393 1.01325
 C3174 C -0.06976 0.57099 0.99623
 H3175 H -0.15085 0.61216 0.96231
 H3176 H -0.17776 0.63756 1.02201
 H3177 H -0.18184 0.63077 0.96143
 H3178 H -0.14986 0.62141 1.04040
 H3179 H -0.11874 0.60243 1.04270
 H3180 H -0.12090 0.60289 0.96355
 H3181 H -0.08986 0.58461 0.96551
 H3182 H -0.09292 0.58327 1.04404
 H3183 H -0.06190 0.56359 1.04374
 H3184 H -0.06334 0.56746 0.98279
 C3185 C 0.00056 0.65088 0.59886
 C3186 C -0.00417 0.64747 0.57941
 C3187 C -0.00946 0.66465 0.56768
 C3188 C -0.00910 0.68432 0.57501
 C3189 C -0.00371 0.68741 0.59409
 C3190 C 0.00084 0.67057 0.60600
 C3191 C -0.01479 0.66225 0.54858
 C3192 C -0.01511 0.64308 0.54071
 C3193 C -0.00981 0.62544 0.55165
 C3194 C -0.00378 0.62770 0.57122
 C3195 C 0.00287 0.61021 0.58180
 C3196 C 0.00335 0.59112 0.57368
 C3197 C -0.00306 0.58860 0.55484
 C3198 C -0.00999 0.60562 0.54358
 C3199 C -0.01699 0.60204 0.52472
 C3200 C -0.01674 0.58249 0.51738
 C3201 C -0.00953 0.56585 0.52849
 C3202 C -0.00268 0.56902 0.54722
 H3203 H 0.00399 0.63875 0.60900
 H3204 H -0.01248 0.69734 0.56568
 H3205 H 0.00465 0.67264 0.62092
 H3206 H -0.01876 0.67539 0.53957
 H3207 H -0.01915 0.64274 0.52579
 H3208 H 0.00825 0.61077 0.59639
 H3209 H 0.00872 0.57815 0.58232
 H3210 H -0.02310 0.61386 0.51529
 H3211 H -0.02224 0.58045 0.50287
 H3212 H 0.00267 0.55616 0.55602
 C3213 C 0.49182 0.14729 0.11244
 C3214 C 0.49053 0.14649 0.09238
 C3215 C 0.48808 0.16519 0.08213
 C3216 C 0.48839 0.18375 0.09157
 C3217 C 0.49086 0.18429 0.11133
 C3218 C 0.49208 0.16593 0.12171
 C3219 C 0.48592 0.16542 0.06244
 C3220 C 0.48632 0.14744 0.05249
 C3221 C 0.48929 0.12840 0.06189
 C3222 C 0.49186 0.12793 0.08214
 C3223 C 0.49639 0.10905 0.09139
 C3224 C 0.49825 0.09122 0.08126
 C3225 C 0.49523 0.09136 0.06161
 C3226 C 0.49029 0.10985 0.05164
 C3227 C 0.48642 0.10896 0.03179
 C3228 C 0.48775 0.09057 0.02234
 C3229 C 0.49308 0.07252 0.03224
 C3230 C 0.49690 0.07300 0.05186
 H3231 H 0.49270 0.13384 0.12141
 H3232 H 0.48766 0.19786 0.08336
 H3233 H 0.49353 0.16599 0.13705
 H3234 H 0.48404 0.17972 0.05459
 H3235 H 0.48491 0.14914 0.03730
 H3236 H 0.49917 0.10759 0.10649
 H3237 H 0.50200 0.07711 0.08894
 H3238 H 0.48185 0.12203 0.02313
 H3239 H 0.48455 0.09050 0.00715
 H3240 H 0.50062 0.05894 0.05965
 C3241 C 0.01600 0.16973 0.92871
 C3242 C 0.00849 0.15159 0.92066
 C3243 C -0.00210 0.15314 0.90278
 C3244 C -0.00539 0.17210 0.89378
 C3245 C 0.00105 0.18994 0.90253
 C3246 C 0.01222 0.18860 0.91977
 C3247 C -0.01004 0.13589 0.89426
 C3248 C -0.00916 0.11726 0.90375
 C3249 C -0.00007 0.11519 0.92214
 C3250 C 0.01016 0.13222 0.93013
 C3251 C 0.02137 0.12938 0.94745
 C3252 C 0.02142 0.11093 0.95730
 C3253 C 0.00998 0.09481 0.95051
 C3254 C -0.00097 0.09668 0.93286
 C3255 C -0.01306 0.08021 0.92702
 C3256 C -0.01392 0.06260 0.93814
 C3257 C -0.00278 0.06073 0.95540
 C3258 C 0.00923 0.07688 0.96145
 H3259 H 0.02398 0.17005 0.94231
 H3260 H -0.01372 0.17309 0.88021
 H3261 H 0.01725 0.20227 0.92681
 H3262 H -0.01764 0.13692 0.88036
 H3263 H -0.01571 0.10467 0.89622
 H3264 H 0.03044 0.14112 0.95376
 H3265 H 0.03009 0.10946 0.97064
 H3266 H -0.02249 0.08064 0.91422
 H3267 H -0.02333 0.05034 0.93309
 H3268 H 0.01780 0.07566 0.97487
 C3269 C 0.52235 0.65416 0.42038
 C3270 C 0.51396 0.63665 0.41187
 C3271 C 0.50202 0.63938 0.39484
 C3272 C 0.49785 0.65893 0.38740
 C3273 C 0.50445 0.67612 0.39716
 C3274 C 0.51744 0.67362 0.41317
 C3275 C 0.49312 0.62274 0.38604
 C3276 C 0.49373 0.60377 0.39495
 C3277 C 0.50360 0.60081 0.41291
 C3278 C 0.51551 0.61689 0.42054
 C3279 C 0.52774 0.61290 0.43706
 C3280 C 0.52651 0.59467 0.44706
 C3281 C 0.51282 0.57999 0.44115
 C3282 C 0.50140 0.58263 0.42383
 C3283 C 0.48724 0.56759 0.41882
 C3284 C 0.48433 0.55092 0.43076
 C3285 C 0.49551 0.54859 0.44796
 C3286 C 0.51005 0.56299 0.45283
 H3287 H 0.53150 0.65349 0.43335
 H3288 H 0.48818 0.66086 0.37469
 H3289 H 0.52277 0.68676 0.42088
 H3290 H 0.48458 0.62464 0.37266
 H3291 H 0.48609 0.59171 0.38754
 H3292 H 0.53835 0.62369 0.44271
 H3293 H 0.53573 0.59242 0.46001
 H3294 H 0.47757 0.56868 0.40617
 H3295 H 0.47313 0.53990 0.42655
 H3296 H 0.51887 0.56135 0.46608
 C3297 C 0.49664 0.82516 0.42506
 C3298 C 0.50047 0.84400 0.41604
 C3299 C 0.50895 0.84358 0.39798
 C3300 C 0.51310 0.82500 0.38936
 C3301 C 0.50993 0.80651 0.39882
 C3302 C 0.50146 0.80677 0.41662
 C3303 C 0.51388 0.86167 0.38887
 C3304 C 0.51201 0.88018 0.39792
 C3305 C 0.50459 0.88125 0.41630
 C3306 C 0.49724 0.86313 0.42481
 C3307 C 0.48713 0.86470 0.44189
 C3308 C 0.48589 0.88305 0.45126
 C3309 C 0.49502 0.90032 0.44419
 C3310 C 0.50443 0.89978 0.42658
 C3311 C 0.51416 0.91754 0.42046
 C3312 C 0.51458 0.93497 0.43150
 C3313 C 0.50523 0.93532 0.44886
 C3314 C 0.49519 0.91803 0.45495
 H3315 H 0.49093 0.82408 0.43908
 H3316 H 0.51935 0.82495 0.37544
 H3317 H 0.49923 0.79272 0.42441
 H3318 H 0.51998 0.86146 0.37488
 H3319 H 0.51633 0.89347 0.39006
 H3320 H 0.47979 0.85201 0.44829
 H3321 H 0.47824 0.88354 0.46450
 H3322 H 0.52225 0.91823 0.40758
 H3323 H 0.52243 0.94816 0.42645
 H3324 H 0.48797 0.91808 0.46842
 C3325 C 0.01821 0.35547 0.88980
 C3326 C 0.00819 0.35856 0.90682
 C3327 C 0.00108 0.34115 0.91637
 C3328 C 0.00543 0.32155 0.90999
 C3329 C 0.01659 0.31877 0.89388
 C3330 C 0.02234 0.33587 0.88351
 C3331 C -0.00976 0.34326 0.93264
 C3332 C -0.01294 0.36227 0.94030
 C3333 C -0.00494 0.37997 0.93217
 C3334 C 0.00564 0.37814 0.91504
 C3335 C 0.01431 0.39572 0.90732
 C3336 C 0.01374 0.41419 0.91658
 C3337 C 0.00412 0.41601 0.93359
 C3338 C -0.00616 0.39924 0.94119
 C3339 C -0.01668 0.40232 0.95792
 C3340 C -0.01550 0.42066 0.96747
 C3341 C -0.00402 0.43658 0.96063
 C3342 C 0.00523 0.43441 0.94336
 H3343 H 0.02318 0.36779 0.88104
 H3344 H 0.00085 0.30842 0.91812
 H3345 H 0.03028 0.33411 0.87055
 H3346 H -0.01550 0.32999 0.93980
 H3347 H -0.02101 0.36234 0.95318
 H3348 H 0.02248 0.39559 0.89451
 H3349 H 0.02130 0.42708 0.91054
 H3350 H -0.02579 0.39089 0.96418
 H3351 H -0.02322 0.42212 0.98060
 H3352 H 0.01366 0.44691 0.93767
 C3353 C 0.50790 0.32676 0.06570
 C3354 C 0.50534 0.34602 0.07428
 C3355 C 0.49614 0.34651 0.09202
 C3356 C 0.48876 0.32873 0.10005
 C3357 C 0.49015 0.31024 0.09067
 C3358 C 0.50033 0.30913 0.07385
 C3359 C 0.49355 0.36484 0.10136
 C3360 C 0.49821 0.38310 0.09273
 C3361 C 0.50551 0.38367 0.07427
 C3362 C 0.51047 0.36484 0.06544
 C3363 C 0.51968 0.36555 0.04782
 C3364 C 0.52248 0.38395 0.03843
 C3365 C 0.51589 0.40227 0.04603
 C3366 C 0.50751 0.40245 0.06415
 C3367 C 0.50039 0.42132 0.07095
 C3368 C 0.50120 0.43906 0.06004
 C3369 C 0.50924 0.43875 0.04205
 C3370 C 0.51702 0.42037 0.03531
 H3371 H 0.51485 0.32489 0.05233
 H3372 H 0.48102 0.32939 0.11325
 H3373 H 0.50155 0.29478 0.06653
 H3374 H 0.48719 0.36515 0.11523
 H3375 H 0.49571 0.39658 0.10090
 H3376 H 0.52476 0.35207 0.04076
 H3377 H 0.52922 0.38376 0.02473
 H3378 H 0.49335 0.42286 0.08431
 H3379 H 0.49526 0.45309 0.06571
 H3380 H 0.52325 0.41997 0.02138
 C3381 C -0.01109 0.83161 0.55356
 C3382 C -0.01606 0.85033 0.56214
 C3383 C -0.02903 0.84979 0.57755
 C3384 C -0.03613 0.83123 0.58428
 C3385 C -0.03072 0.81291 0.57582
 C3386 C -0.01827 0.81325 0.56039
 C3387 C -0.03485 0.86775 0.58623
 C3388 C -0.02862 0.88646 0.57962
 C3389 C -0.01604 0.88791 0.56409
 C3390 C -0.00898 0.86951 0.55574
 C3391 C 0.00496 0.87089 0.54129
 C3392 C 0.01076 0.88961 0.53432
 C3393 C 0.00285 0.90765 0.54133
 C3394 C -0.01044 0.90716 0.55648
 C3395 C -0.01815 0.92600 0.56287
 C3396 C -0.01350 0.94430 0.55403
 C3397 C -0.00091 0.94454 0.53865
 C3398 C 0.00770 0.92619 0.53278
 H3399 H -0.00195 0.83058 0.54140
 H3400 H -0.04562 0.83099 0.59638
 H3401 H -0.01415 0.79920 0.55351
 H3402 H -0.04457 0.86736 0.59816
 H3403 H -0.03386 0.89952 0.58717
 H3404 H 0.01181 0.85774 0.53507
 H3405 H 0.02122 0.88993 0.52297
 H3406 H -0.02840 0.92717 0.57418
 H3407 H -0.02029 0.95829 0.55896
 H3408 H 0.01748 0.92616 0.52089
 C3409 C 0.29565 0.31820 0.07540
 C3410 C 0.27698 0.31440 0.08336
 C3411 C 0.25960 0.32401 0.07462
 C3412 C 0.26103 0.33667 0.05847
 C3413 C 0.27981 0.34085 0.05097
 C3414 C 0.29700 0.33115 0.05968
 C3415 C 0.24087 0.32133 0.08230
 C3416 C 0.23909 0.31020 0.09901
 C3417 C 0.25605 0.30093 0.10862
 C3418 C 0.27508 0.30202 0.10006
 C3419 C 0.29157 0.29084 0.10857
 C3420 C 0.28991 0.28014 0.12554
 C3421 C 0.27193 0.28049 0.13495
 C3422 C 0.25469 0.29084 0.12664
 C3423 C 0.23712 0.29162 0.13723
 C3424 C 0.23705 0.28328 0.15552
 C3425 C 0.25418 0.27335 0.16367
 C3426 C 0.27138 0.27137 0.15308
 H3427 H 0.30967 0.31180 0.08122
 H3428 H 0.24750 0.34421 0.05255
 H3429 H 0.31174 0.33295 0.05408
 H3430 H 0.22744 0.32834 0.07555
 H3431 H 0.22408 0.30894 0.10396
 H3432 H 0.30606 0.28993 0.10238
 H3433 H 0.30307 0.27206 0.13169
 H3434 H 0.22352 0.29955 0.13226
 H3435 H 0.22367 0.28511 0.16358
 H3436 H 0.28482 0.26406 0.15953
 C3437 C 0.80474 0.81364 0.58395
 C3438 C 0.78653 0.81036 0.59310
 C3439 C 0.76866 0.81914 0.58446
 C3440 C 0.76927 0.83117 0.56786
 C3441 C 0.78751 0.83488 0.55939
 C3442 C 0.80515 0.82567 0.56744
 C3443 C 0.75024 0.81626 0.59258
 C3444 C 0.74911 0.80565 0.60962
 C3445 C 0.76652 0.79755 0.61942
 C3446 C 0.78546 0.79926 0.61071
 C3447 C 0.80268 0.79021 0.62012
 C3448 C 0.80168 0.78082 0.63784
 C3449 C 0.78358 0.78016 0.64704
 C3450 C 0.76566 0.78826 0.63787
 C3451 C 0.74777 0.78758 0.64797
 C3452 C 0.74795 0.78029 0.66661
 C3453 C 0.76576 0.77297 0.67578
 C3454 C 0.78343 0.77226 0.66572
 H3455 H 0.81902 0.80743 0.58931
 H3456 H 0.75551 0.83831 0.56193
 H3457 H 0.81943 0.82784 0.56100
 H3458 H 0.73648 0.82258 0.58584
 H3459 H 0.73422 0.80423 0.61476
 H3460 H 0.81734 0.79031 0.61424
 H3461 H 0.81540 0.77450 0.64466
 H3462 H 0.73346 0.79333 0.64227
 H3463 H 0.73411 0.78093 0.67413
 H3464 H 0.79733 0.76682 0.67285
 C3465 C 0.24251 0.67782 0.57974
 C3466 C 0.22614 0.68843 0.58757
 C3467 C 0.20667 0.68539 0.57925
 C3468 C 0.20392 0.67229 0.56376
 C3469 C 0.22030 0.66168 0.55640
 C3470 C 0.23957 0.66472 0.56451
 C3471 C 0.18998 0.69515 0.58663
 C3472 C 0.19200 0.70727 0.60258
 C3473 C 0.21096 0.71036 0.61175
 C3474 C 0.22839 0.70135 0.60369
 C3475 C 0.24748 0.70531 0.61220
 C3476 C 0.24948 0.71624 0.62879
 C3477 C 0.23262 0.72384 0.63755
 C3478 C 0.21312 0.72165 0.62899
 C3479 C 0.19665 0.73018 0.63855
 C3480 C 0.19946 0.73905 0.65642
 C3481 C 0.21868 0.73976 0.66521
 C3482 C 0.23522 0.73289 0.65532
 H3483 H 0.25777 0.67881 0.58531
 H3484 H 0.18894 0.67028 0.55747
 H3485 H 0.25247 0.65650 0.55939
 H3486 H 0.17506 0.69304 0.58023
 H3487 H 0.17829 0.71392 0.60749
 H3488 H 0.26134 0.70000 0.60650
 H3489 H 0.26444 0.71832 0.63511
 H3490 H 0.18134 0.72955 0.63299
 H3491 H 0.18645 0.74426 0.66384
 H3492 H 0.25020 0.73366 0.66197
 C3493 C 0.75331 0.17437 0.08348
 C3494 C 0.73693 0.18228 0.09342
 C3495 C 0.71732 0.17896 0.08563
 C3496 C 0.71439 0.16695 0.06943
 C3497 C 0.73076 0.15821 0.06017
 C3498 C 0.75026 0.16273 0.06721
 C3499 C 0.70064 0.18744 0.09414
 C3500 C 0.70289 0.19873 0.11058
 C3501 C 0.72200 0.20161 0.11953
 C3502 C 0.73930 0.19309 0.11087
 C3503 C 0.75829 0.19488 0.12037
 C3504 C 0.76029 0.20393 0.13798
 C3505 C 0.74359 0.21205 0.14667
 C3506 C 0.72431 0.21182 0.13731
 C3507 C 0.70813 0.22136 0.14650
 C3508 C 0.71080 0.22914 0.16481
 C3509 C 0.72958 0.22764 0.17449
 C3510 C 0.74602 0.21971 0.16507
 H3511 H 0.76875 0.17685 0.08789
 H3512 H 0.69915 0.16499 0.06378
 H3513 H 0.76344 0.15638 0.06085
 H3514 H 0.68559 0.18516 0.08813
 H3515 H 0.68917 0.20438 0.11635
 H3516 H 0.77194 0.18864 0.11496
 H3517 H 0.77509 0.20427 0.14502
 H3518 H 0.69317 0.22278 0.14006
 H3519 H 0.69790 0.23535 0.17179
 H3520 H 0.76071 0.21885 0.17239
 C3521 C 0.73525 0.17385 0.92669
 C3522 C 0.75108 0.18476 0.91867
 C3523 C 0.77015 0.18391 0.92848
 C3524 C 0.77332 0.17173 0.94494
 C3525 C 0.75770 0.16028 0.95212
 C3526 C 0.73858 0.16184 0.94309
 C3527 C 0.78609 0.19492 0.92166
 C3528 C 0.78377 0.20644 0.90501
 C3529 C 0.76537 0.20719 0.89423
 C3530 C 0.74876 0.19613 0.90117
 C3531 C 0.73058 0.19622 0.89007
 C3532 C 0.72877 0.20622 0.87263
 C3533 C 0.74482 0.21682 0.86558
 C3534 C 0.76320 0.21803 0.87641
 C3535 C 0.77867 0.22976 0.86869
 C3536 C 0.77625 0.23884 0.85062
 C3537 C 0.75842 0.23651 0.83966
 C3538 C 0.74264 0.22586 0.84746
 H3539 H 0.72012 0.17409 0.92063
 H3540 H 0.78808 0.17097 0.95211
 H3541 H 0.72625 0.15323 0.94840
 H3542 H 0.80066 0.19445 0.92920
 H3543 H 0.79697 0.21418 0.90068
 H3544 H 0.71749 0.18817 0.89418
 H3545 H 0.71464 0.20541 0.86443
 H3546 H 0.79290 0.23209 0.87615
 H3547 H 0.78862 0.24712 0.84495
 H3548 H 0.72861 0.22431 0.83923
 C3549 C 0.23145 0.67082 0.42289
 C3550 C 0.24748 0.68220 0.41579
 C3551 C 0.26597 0.68177 0.42659
 C3552 C 0.26832 0.66992 0.44334
 C3553 C 0.25247 0.65826 0.44980
 C3554 C 0.23398 0.65911 0.43955
 C3555 C 0.28215 0.69296 0.42051
 C3556 C 0.28065 0.70427 0.40369
 C3557 C 0.26281 0.70477 0.39206
 C3558 C 0.24590 0.69364 0.39828
 C3559 C 0.22813 0.69394 0.38658
 C3560 C 0.22703 0.70408 0.36918
 C3561 C 0.24346 0.71456 0.36273
 C3562 C 0.26146 0.71555 0.37416
 C3563 C 0.27741 0.72697 0.36692
 C3564 C 0.27579 0.73600 0.34877
 C3565 C 0.25828 0.73399 0.33726
 C3566 C 0.24203 0.72365 0.34459
 H3567 H 0.21677 0.67042 0.41587
 H3568 H 0.28259 0.66972 0.45138
 H3569 H 0.22150 0.65024 0.44417
 H3570 H 0.29629 0.69279 0.42878
 H3571 H 0.29397 0.71220 0.40003
 H3572 H 0.21476 0.68610 0.39023
 H3573 H 0.21317 0.70347 0.36054
 H3574 H 0.29147 0.72898 0.37474
 H3575 H 0.28857 0.74394 0.34350
 H3576 H 0.22825 0.72226 0.33593
 C3577 C 0.72168 0.80747 0.43516
 C3578 C 0.73928 0.80273 0.42541
 C3579 C 0.75742 0.81182 0.43196
 C3580 C 0.75757 0.82573 0.44694
 C3581 C 0.73986 0.83085 0.45597
 C3582 C 0.72203 0.82122 0.45013
 C3583 C 0.77535 0.80731 0.42335
 C3584 C 0.77573 0.79442 0.40797
 C3585 C 0.75801 0.78563 0.40028
 C3586 C 0.73948 0.78969 0.40923
 C3587 C 0.72172 0.78116 0.40129
 C3588 C 0.72184 0.76988 0.38475
 C3589 C 0.73964 0.76639 0.37549
 C3590 C 0.75809 0.77365 0.38345
 C3591 C 0.77579 0.76927 0.37375
 C3592 C 0.77488 0.75998 0.35614
 C3593 C 0.75650 0.75413 0.34775
 C3594 C 0.73898 0.75651 0.35783
 H3595 H 0.70734 0.80086 0.43161
 H3596 H 0.77149 0.83305 0.45119
 H3597 H 0.70820 0.82427 0.45719
 H3598 H 0.78930 0.81405 0.42841
 H3599 H 0.79025 0.79213 0.40214
 H3600 H 0.70723 0.78343 0.40722
 H3601 H 0.70772 0.76422 0.37889
 H3602 H 0.79057 0.77335 0.37900
 H3603 H 0.78864 0.75800 0.34865
 H3604 H 0.72469 0.75201 0.35135
 C3605 C 0.26755 0.33635 0.91521
 C3606 C 0.25284 0.32347 0.90689
 C3607 C 0.23458 0.32142 0.91628
 C3608 C 0.23116 0.33227 0.93293
 C3609 C 0.24575 0.34527 0.94070
 C3610 C 0.26401 0.34699 0.93177
 C3611 C 0.21971 0.30867 0.90896
 C3612 C 0.22232 0.29809 0.89230
 C3613 C 0.23998 0.29993 0.88209
 C3614 C 0.25553 0.31281 0.88954
 C3615 C 0.27306 0.31493 0.87920
 C3616 C 0.27518 0.30538 0.86199
 C3617 C 0.26009 0.29314 0.85437
 C3618 C 0.24244 0.28979 0.86441
 C3619 C 0.22790 0.27671 0.85606
 C3620 C 0.23039 0.26836 0.83814
 C3621 C 0.24741 0.27271 0.82794
 C3622 C 0.26241 0.28468 0.83643
 H3623 H 0.28197 0.33868 0.90931
 H3624 H 0.21711 0.33052 0.93994
 H3625 H 0.27551 0.35695 0.93743
 H3626 H 0.20575 0.30696 0.91613
 H3627 H 0.20995 0.28881 0.88762
 H3628 H 0.28542 0.32424 0.88380
 H3629 H 0.28877 0.30785 0.85442
 H3630 H 0.21427 0.27284 0.86282
 H3631 H 0.21856 0.25912 0.83195
 H3632 H 0.27581 0.28792 0.82882
 C3633 C 0.84354 0.42795 0.73496
 C3634 C 0.84659 0.41470 0.75090
 C3635 C 0.86458 0.41661 0.76222
 C3636 C 0.87827 0.43211 0.75821
 C3637 C 0.87480 0.44518 0.74241
 C3638 C 0.85745 0.44278 0.73082
 C3639 C 0.86888 0.40285 0.77724
 C3640 C 0.85604 0.38682 0.78090
 C3641 C 0.83789 0.38439 0.77010
 C3642 C 0.83266 0.39926 0.75554
 C3643 C 0.81355 0.39838 0.74615
 C3644 C 0.80064 0.38263 0.74965
 C3645 C 0.80626 0.36698 0.76246
 C3646 C 0.82476 0.36760 0.77317
 C3647 C 0.82951 0.35095 0.78585
 C3648 C 0.81689 0.33402 0.78688
 C3649 C 0.79916 0.33332 0.77547
 C3650 C 0.79364 0.35029 0.76397
 H3651 H 0.83086 0.42687 0.72503
 H3652 H 0.89186 0.43371 0.76708
 H3653 H 0.85453 0.45262 0.71849
 H3654 H 0.88257 0.40418 0.78600
 H3655 H 0.86058 0.37670 0.79255
 H3656 H 0.80794 0.40989 0.73611
 H3657 H 0.78626 0.38242 0.74179
 H3658 H 0.84329 0.35014 0.79446
 H3659 H 0.82154 0.32105 0.79582
 H3660 H 0.77979 0.35004 0.75527
 C3661 C 0.37764 0.89900 0.22724
 C3662 C 0.37075 0.89404 0.24527
 C3663 C 0.37209 0.90907 0.25939
 C3664 C 0.38160 0.92778 0.25580
 C3665 C 0.38903 0.93252 0.23773
 C3666 C 0.38622 0.91771 0.22356
 C3667 C 0.36355 0.90543 0.27687
 C3668 C 0.35301 0.88759 0.28023
 C3669 C 0.35148 0.87215 0.26652
 C3670 C 0.36167 0.87500 0.24928
 C3671 C 0.36265 0.85866 0.23658
 C3672 C 0.35233 0.84089 0.23957
 C3673 C 0.34048 0.83873 0.25522
 C3674 C 0.34006 0.85401 0.26920
 C3675 C 0.32751 0.85074 0.28471
 C3676 C 0.31510 0.83360 0.28550
 C3677 C 0.31503 0.81926 0.27098
 C3678 C 0.32844 0.82157 0.25642
 H3679 H 0.37557 0.88914 0.21526
 H3680 H 0.38316 0.93834 0.26734
 H3681 H 0.38958 0.92057 0.20895
 H3682 H 0.36446 0.91677 0.28788
 H3683 H 0.34647 0.88610 0.29387
 H3684 H 0.37159 0.85904 0.22422
 H3685 H 0.35314 0.82894 0.22917
 H3686 H 0.32625 0.86162 0.29591
 H3687 H 0.30481 0.83217 0.29688
 H3688 H 0.32873 0.81036 0.24527
 C3689 C 0.12734 0.91859 0.78114
 C3690 C 0.12974 0.90866 0.76368
 C3691 C 0.12177 0.91868 0.74697
 C3692 C 0.11122 0.93751 0.74802
 C3693 C 0.10853 0.94681 0.76558
 C3694 C 0.11696 0.93720 0.78199
 C3695 C 0.12439 0.90984 0.72934
 C3696 C 0.13489 0.89137 0.72784
 C3697 C 0.14300 0.88069 0.74404
 C3698 C 0.13998 0.88932 0.76228
 C3699 C 0.14709 0.87824 0.77859
 C3700 C 0.15739 0.85981 0.77725
 C3701 C 0.16111 0.85154 0.75967
 C3702 C 0.15396 0.86164 0.74274
 C3703 C 0.15836 0.85223 0.72533
 C3704 C 0.16958 0.83384 0.72496
 C3705 C 0.17677 0.82418 0.74185
 C3706 C 0.17214 0.83316 0.75911
 H3707 H 0.13354 0.91264 0.79448
 H3708 H 0.10488 0.94479 0.73516
 H3709 H 0.11579 0.94427 0.79568
 H3710 H 0.11835 0.91738 0.71649
 H3711 H 0.13625 0.88571 0.71370
 H3712 H 0.14477 0.88322 0.79280
 H3713 H 0.16263 0.85197 0.79024
 H3714 H 0.15362 0.85883 0.71176
 H3715 H 0.17288 0.82735 0.71140
 H3716 H 0.17738 0.82595 0.77239
 C3717 C 0.63561 0.40632 0.28892
 C3718 C 0.63908 0.39681 0.27142
 C3719 C 0.62996 0.40591 0.25475
 C3720 C 0.61823 0.42400 0.25574
 C3721 C 0.61511 0.43323 0.27324
 C3722 C 0.62391 0.42413 0.28972
 C3723 C 0.63256 0.39690 0.23720
 C3724 C 0.64393 0.37896 0.23575
 C3725 C 0.65343 0.36932 0.25188
 C3726 C 0.65117 0.37859 0.26998
 C3727 C 0.66119 0.36944 0.28607
 C3728 C 0.67265 0.35174 0.28472
 C3729 C 0.67466 0.34227 0.26736
 C3730 C 0.66519 0.35076 0.25062
 C3731 C 0.66790 0.34014 0.23346
 C3732 C 0.67940 0.32191 0.23318
 C3733 C 0.68858 0.31368 0.24991
 C3734 C 0.68614 0.32419 0.26688
 H3735 H 0.64160 0.40045 0.30236
 H3736 H 0.61132 0.43078 0.24289
 H3737 H 0.62201 0.43102 0.30340
 H3738 H 0.62565 0.40377 0.22439
 H3739 H 0.64512 0.37307 0.22168
 H3740 H 0.66068 0.37563 0.30007
 H3741 H 0.68001 0.34532 0.29754
 H3742 H 0.66119 0.34539 0.22005
 H3743 H 0.68094 0.31418 0.21985
 H3744 H 0.69313 0.31823 0.28004
 C3745 C 0.66235 0.56841 0.24051
 C3746 C 0.66197 0.58090 0.25669
 C3747 C 0.64606 0.57822 0.26918
 C3748 C 0.63149 0.56319 0.26564
 C3749 C 0.63206 0.55125 0.24932
 C3750 C 0.64765 0.55398 0.23695
 C3751 C 0.64456 0.59088 0.28482
 C3752 C 0.65799 0.60666 0.28797
 C3753 C 0.67391 0.61012 0.27581
 C3754 C 0.67642 0.59638 0.26044
 C3755 C 0.69328 0.59862 0.24921
 C3756 C 0.70633 0.61460 0.25181
 C3757 C 0.70320 0.62904 0.26568
 C3758 C 0.68729 0.62694 0.27822
 C3759 C 0.68516 0.64222 0.29211
 C3760 C 0.69765 0.65926 0.29271
 C3761 C 0.71263 0.66155 0.27956
 C3762 C 0.71569 0.64596 0.26658
 H3763 H 0.67340 0.56977 0.22992
 H3764 H 0.61932 0.56127 0.27518
 H3765 H 0.64841 0.54490 0.22429
 H3766 H 0.63254 0.58889 0.29451
 H3767 H 0.65555 0.61592 0.30017
 H3768 H 0.69697 0.58815 0.23822
 H3769 H 0.71879 0.61592 0.24251
 H3770 H 0.67354 0.64184 0.30226
 H3771 H 0.69495 0.67112 0.30287
 H3772 H 0.72745 0.64740 0.25651
 C3773 C 0.15604 0.08252 0.72985
 C3774 C 0.15429 0.09750 0.74397
 C3775 C 0.13858 0.09541 0.75679
 C3776 C 0.12486 0.07931 0.75492
 C3777 C 0.12633 0.06539 0.74013
 C3778 C 0.14221 0.06696 0.72794
 C3779 C 0.13632 0.10973 0.77102
 C3780 C 0.14885 0.12647 0.77251
 C3781 C 0.16425 0.12966 0.75970
 C3782 C 0.16719 0.11472 0.74539
 C3783 C 0.18262 0.11775 0.73260
 C3784 C 0.19418 0.13505 0.73314
 C3785 C 0.19114 0.15001 0.74655
 C3786 C 0.17653 0.14748 0.76036
 C3787 C 0.17472 0.16314 0.77393
 C3788 C 0.18642 0.18073 0.77322
 C3789 C 0.20011 0.18335 0.75893
 C3790 C 0.20258 0.16769 0.74591
 H3791 H 0.16761 0.08251 0.71969
 H3792 H 0.11254 0.07814 0.76439
 H3793 H 0.14370 0.05621 0.71654
 H3794 H 0.12447 0.10819 0.78096
 H3795 H 0.14582 0.13691 0.78371
 H3796 H 0.18606 0.10718 0.72164
 H3797 H 0.20554 0.13683 0.72273
 H3798 H 0.16430 0.16238 0.78515
 H3799 H 0.18431 0.19256 0.78355
 H3800 H 0.21345 0.16932 0.73500
 C3801 C 0.33976 0.07397 0.26331
 C3802 C 0.34057 0.08784 0.24780
 C3803 C 0.35546 0.08418 0.23439
 C3804 C 0.36912 0.06747 0.23681
 C3805 C 0.36855 0.05459 0.25279
 C3806 C 0.35358 0.05782 0.26574
 C3807 C 0.35705 0.09760 0.21902
 C3808 C 0.34481 0.11505 0.21704
 C3809 C 0.33023 0.11978 0.23034
 C3810 C 0.32765 0.10556 0.24562
 C3811 C 0.31254 0.10977 0.25852
 C3812 C 0.30135 0.12780 0.25745
 C3813 C 0.30450 0.14236 0.24340
 C3814 C 0.31850 0.13846 0.22926
 C3815 C 0.32049 0.15379 0.21507
 C3816 C 0.30989 0.17248 0.21568
 C3817 C 0.29704 0.17650 0.23041
 C3818 C 0.29402 0.16109 0.24385
 H3819 H 0.32909 0.07543 0.27424
 H3820 H 0.38078 0.06507 0.22678
 H3821 H 0.35283 0.04794 0.27813
 H3822 H 0.36825 0.09484 0.20861
 H3823 H 0.34734 0.12474 0.20496
 H3824 H 0.30903 0.09952 0.26988
 H3825 H 0.29032 0.13056 0.26803
 H3826 H 0.33050 0.15205 0.20360
 H3827 H 0.31245 0.18415 0.20508
 H3828 H 0.28383 0.16393 0.25514
 C3829 C 0.86678 0.58736 0.78559
 C3830 C 0.86349 0.59928 0.76879
 C3831 C 0.87227 0.59216 0.75210
 C3832 C 0.88410 0.57403 0.75252
 C3833 C 0.88757 0.56278 0.76947
 C3834 C 0.87856 0.56955 0.78584
 C3835 C 0.86934 0.60327 0.73515
 C3836 C 0.85804 0.62140 0.73434
 C3837 C 0.84915 0.62929 0.75057
 C3838 C 0.85190 0.61797 0.76807
 C3839 C 0.84313 0.62581 0.78437
 C3840 C 0.83223 0.64402 0.78375
 C3841 C 0.82951 0.65528 0.76694
 C3842 C 0.83774 0.64818 0.75002
 C3843 C 0.83418 0.66043 0.73338
 C3844 C 0.82318 0.67892 0.73377
 C3845 C 0.81539 0.68587 0.75069
 C3846 C 0.81858 0.67376 0.76714
 H3847 H 0.86051 0.59124 0.79888
 H3848 H 0.89095 0.56889 0.73974
 H3849 H 0.88051 0.56091 0.79901
 H3850 H 0.87594 0.59792 0.72232
 H3851 H 0.85665 0.62899 0.72070
 H3852 H 0.84446 0.61835 0.79804
 H3853 H 0.82591 0.64941 0.79671
 H3854 H 0.83973 0.65622 0.71985
 H3855 H 0.82095 0.68788 0.72081
 H3856 H 0.81254 0.67871 0.78037
 C3857 C 0.90027 0.74481 0.14754
 C3858 C 0.90029 0.73819 0.16669
 C3859 C 0.91900 0.73249 0.17574
 C3860 C 0.93691 0.73470 0.16635
 C3861 C 0.93688 0.74258 0.14770
 C3862 C 0.91818 0.74704 0.13833
 C3863 C 0.91993 0.72515 0.19437
 C3864 C 0.90268 0.72377 0.20452
 C3865 C 0.88373 0.73008 0.19648
 C3866 C 0.88250 0.73741 0.17723
 C3867 C 0.86369 0.74446 0.16941
 C3868 C 0.84672 0.74466 0.18002
 C3869 C 0.84771 0.73769 0.19876
 C3870 C 0.86606 0.72990 0.20722
 C3871 C 0.86591 0.72250 0.22618
 C3872 C 0.84845 0.72344 0.23633
 C3873 C 0.83062 0.73176 0.22798
 C3874 C 0.83033 0.73866 0.20913
 H3875 H 0.88671 0.74839 0.13915
 H3876 H 0.95091 0.73154 0.17434
 H3877 H 0.91714 0.75191 0.12360
 H3878 H 0.93423 0.72061 0.20131
 H3879 H 0.90490 0.71819 0.21888
 H3880 H 0.86158 0.75050 0.15519
 H3881 H 0.83267 0.75054 0.17351
 H3882 H 0.87895 0.71582 0.23364
 H3883 H 0.84898 0.71779 0.25085
 H3884 H 0.81646 0.74473 0.20239
 C3885 C 0.42387 0.21473 0.67608
 C3886 C 0.40421 0.21696 0.66772
 C3887 C 0.40219 0.22152 0.64801
 C3888 C 0.41918 0.22500 0.63758
 C3889 C 0.43825 0.22552 0.64670
 C3890 C 0.44062 0.21925 0.66572
 C3891 C 0.38320 0.22434 0.63912
 C3892 C 0.36626 0.22549 0.64980
 C3893 C 0.36783 0.22339 0.66972
 C3894 C 0.38662 0.21684 0.67853
 C3895 C 0.38730 0.21147 0.69799
 C3896 C 0.37063 0.21443 0.70886
 C3897 C 0.35304 0.22352 0.70090
 C3898 C 0.35139 0.22815 0.68120
 C3899 C 0.33388 0.23867 0.67396
 C3900 C 0.31863 0.24417 0.68583
 C3901 C 0.32012 0.23909 0.70518
 C3902 C 0.33726 0.22852 0.71260
 H3903 H 0.42675 0.21131 0.69094
 H3904 H 0.41739 0.22932 0.62270
 H3905 H 0.45526 0.21945 0.67306
 H3906 H 0.38152 0.22705 0.62394
 H3907 H 0.35207 0.22825 0.64211
 H3908 H 0.40056 0.20489 0.70520
 H3909 H 0.37185 0.21043 0.72383
 H3910 H 0.33190 0.24361 0.65935
 H3911 H 0.30547 0.25227 0.67975
 H3912 H 0.33855 0.22467 0.72761
 C3913 C 0.40255 0.73782 0.84264
 C3914 C 0.39647 0.74966 0.82639
 C3915 C 0.41173 0.75840 0.81564
 C3916 C 0.43212 0.75460 0.82060
 C3917 C 0.43770 0.74183 0.83603
 C3918 C 0.42281 0.73397 0.84727
 C3919 C 0.40662 0.77035 0.79963
 C3920 C 0.38670 0.77290 0.79329
 C3921 C 0.37102 0.76345 0.80276
 C3922 C 0.37590 0.75236 0.82002
 C3923 C 0.36011 0.74379 0.83000
 C3924 C 0.34044 0.74467 0.82274
 C3925 C 0.33565 0.75420 0.80534
 C3926 C 0.35070 0.76419 0.79528
 C3927 C 0.34484 0.77387 0.77778
 C3928 C 0.32512 0.77296 0.77041
 C3929 C 0.31058 0.76240 0.78013
 C3930 C 0.31587 0.75339 0.79778
 H3931 H 0.39215 0.73080 0.85185
 H3932 H 0.44365 0.76078 0.81191
 H3933 H 0.42688 0.72447 0.85960
 H3934 H 0.41820 0.77741 0.79159
 H3935 H 0.38419 0.78217 0.78068
 H3936 H 0.36241 0.73594 0.84344
 H3937 H 0.32889 0.73740 0.83067
 H3938 H 0.35511 0.78190 0.76916
 H3939 H 0.32140 0.78016 0.75676
 H3940 H 0.30462 0.74546 0.80556
 C3941 C 0.92676 0.25708 0.30629
 C3942 C 0.91205 0.24274 0.31096
 C3943 C 0.91874 0.22466 0.32065
 C3944 C 0.93916 0.22114 0.32522
 C3945 C 0.95371 0.23544 0.32059
 C3946 C 0.94712 0.25352 0.31113
 C3947 C 0.90507 0.21009 0.32600
 C3948 C 0.88471 0.21291 0.32183
 C3949 C 0.87714 0.23050 0.31199
 C3950 C 0.89103 0.24565 0.30638
 C3951 C 0.88346 0.26302 0.29617
 C3952 C 0.86317 0.26529 0.29112
 C3953 C 0.84957 0.25054 0.29621
 C3954 C 0.85618 0.23318 0.30712
 C3955 C 0.84150 0.21905 0.31238
 C3956 C 0.82148 0.22144 0.30597
 C3957 C 0.81536 0.23804 0.29429
 C3958 C 0.82939 0.25285 0.28997
 H3959 H 0.92313 0.27128 0.29898
 H3960 H 0.94340 0.20754 0.33346
 H3961 H 0.95770 0.26484 0.30687
 H3962 H 0.91018 0.19625 0.33348
 H3963 H 0.87536 0.20072 0.32630
 H3964 H 0.89286 0.27508 0.29148
 H3965 H 0.85811 0.27869 0.28291
 H3966 H 0.84492 0.20580 0.32121
 H3967 H 0.81091 0.20986 0.30971
 H3968 H 0.82476 0.26599 0.28122
 C3969 C 0.08348 0.28839 0.30487
 C3970 C 0.10237 0.28760 0.31495
 C3971 C 0.10249 0.28802 0.33504
 C3972 C 0.08444 0.28744 0.34445
 C3973 C 0.06606 0.28622 0.33418
 C3974 C 0.06566 0.28752 0.31440
 C3975 C 0.12061 0.28804 0.34568
 C3976 C 0.13878 0.28631 0.33694
 C3977 C 0.13948 0.28414 0.31711
 C3978 C 0.12100 0.28538 0.30588
 C3979 C 0.12166 0.28323 0.28605
 C3980 C 0.13950 0.27874 0.27756
 C3981 C 0.15741 0.27658 0.28837
 C3982 C 0.15792 0.27993 0.30818
 C3983 C 0.17686 0.27837 0.31821
 C3984 C 0.19425 0.27303 0.30896
 C3985 C 0.19323 0.26884 0.28960
 C3986 C 0.17486 0.27089 0.27936
 H3987 H 0.08182 0.28911 0.28964
 H3988 H 0.08481 0.28654 0.35982
 H3989 H 0.05148 0.28729 0.30623
 H3990 H 0.12075 0.28880 0.36102
 H3991 H 0.15200 0.28598 0.34629
 H3992 H 0.10853 0.28425 0.27660
 H3993 H 0.13918 0.27660 0.26234
 H3994 H 0.17884 0.28115 0.33316
 H3995 H 0.20849 0.27191 0.31700
 H3996 H 0.17420 0.26830 0.26420
 C3997 C 0.58336 0.75840 0.80860
 C3998 C 0.60140 0.76151 0.81950
 C3999 C 0.59984 0.76830 0.83835
 C4000 C 0.58099 0.77097 0.84606
 C4001 C 0.56333 0.76772 0.83510
 C4002 C 0.56468 0.76150 0.81633
 C4003 C 0.61706 0.77257 0.84941
 C4004 C 0.63593 0.77097 0.84195
 C4005 C 0.63829 0.76445 0.82321
 C4006 C 0.62084 0.75858 0.81219
 C4007 C 0.62341 0.74970 0.79436
 C4008 C 0.64228 0.74759 0.78707
 C4009 C 0.65922 0.75464 0.79703
 C4010 C 0.65755 0.76335 0.81516
 C4011 C 0.67518 0.77109 0.82421
 C4012 C 0.69362 0.76999 0.81558
 C4013 C 0.69508 0.76101 0.79783
 C4014 C 0.67784 0.75325 0.78873
 H4015 H 0.58312 0.75420 0.79390
 H4016 H 0.58010 0.77556 0.86070
 H4017 H 0.55121 0.75935 0.80744
 H4018 H 0.61593 0.77757 0.86390
 H4019 H 0.64846 0.77450 0.85144
 H4020 H 0.61113 0.74374 0.78581
 H4021 H 0.64357 0.74069 0.77330
 H4022 H 0.67516 0.77863 0.83766
 H4023 H 0.70675 0.77624 0.82282
 H4024 H 0.67875 0.74659 0.77481
 C4025 C 0.59758 0.26408 0.64325
 C4026 C 0.59812 0.27159 0.66196
 C4027 C 0.58006 0.27143 0.67191
 C4028 C 0.56269 0.26276 0.66381
 C4029 C 0.56323 0.25343 0.64616
 C4030 C 0.58042 0.25494 0.63562
 C4031 C 0.57981 0.27853 0.69041
 C4032 C 0.59759 0.28350 0.70011
 C4033 C 0.61625 0.28163 0.69150
 C4034 C 0.61630 0.27738 0.67169
 C4035 C 0.63475 0.27774 0.66258
 C4036 C 0.65281 0.27911 0.67293
 C4037 C 0.65311 0.28034 0.69260
 C4038 C 0.63493 0.28263 0.70217
 C4039 C 0.63626 0.28428 0.72219
 C4040 C 0.65476 0.28230 0.73221
 C4041 C 0.67234 0.27856 0.72261
 C4042 C 0.67153 0.27838 0.70282
 H4043 H 0.61046 0.26379 0.63455
 H4044 H 0.54931 0.26166 0.67196
 H4045 H 0.58088 0.24818 0.62172
 H4046 H 0.56591 0.27912 0.69785
 H4047 H 0.59625 0.28818 0.71457
 H4048 H 0.63579 0.27641 0.64747
 H4049 H 0.66672 0.27824 0.66551
 H4050 H 0.62328 0.28623 0.73061
 H4051 H 0.65521 0.28279 0.74756
 H4052 H 0.68528 0.27607 0.69534
 C4053 C 0.09996 0.74451 0.14842
 C4054 C 0.10214 0.75836 0.16353
 C4055 C 0.08474 0.76392 0.17333
 C4056 C 0.06609 0.75555 0.16829
 C4057 C 0.06463 0.74085 0.15418
 C4058 C 0.08150 0.73578 0.14401
 C4059 C 0.08628 0.77687 0.18879
 C4060 C 0.10499 0.78267 0.19605
 C4061 C 0.12283 0.77604 0.18773
 C4062 C 0.12123 0.76540 0.17023
 C4063 C 0.13889 0.76127 0.16052
 C4064 C 0.15769 0.76451 0.16899
 C4065 C 0.15948 0.77187 0.18738
 C4066 C 0.14220 0.77862 0.19676
 C4067 C 0.14500 0.78607 0.21541
 C4068 C 0.16390 0.78516 0.22479
 C4069 C 0.18050 0.77697 0.21584
 C4070 C 0.17839 0.77138 0.19682
 H4071 H 0.11241 0.73915 0.14048
 H4072 H 0.05296 0.75939 0.17619
 H4073 H 0.08049 0.72457 0.13289
 H4074 H 0.07297 0.78165 0.19600
 H4075 H 0.10503 0.79213 0.20840
 H4076 H 0.13866 0.75516 0.14642
 H4077 H 0.17093 0.76017 0.16147
 H4078 H 0.13275 0.79155 0.22355
 H4079 H 0.16528 0.78982 0.23945
 H4080 H 0.19134 0.76553 0.18965
   
