data_POSCAR
  _audit_creation_date              2014-09-24
  _audit_creation_method            'ToBaCCo'
  _symmetry_space_group_name_H-M    'P1'
  _symmetry_Int_Tables_number       1
  _symmetry_cell_setting            triclinic
  loop_
  _symmetry_equiv_pos_as_xyz
 x,y,z
_cell_length_a 55.4625
_cell_length_b 55.7978
_cell_length_c 55.9089
_cell_angle_alpha 90.252400
_cell_angle_beta 89.729700
_cell_angle_gamma 89.993100
loop_
  _atom_site_label
  _atom_site_type_symbol
  _atom_site_fract_x
  _atom_site_fract_y
  _atom_site_fract_z
N1 N 0.17005 0.22286 0.22772
 N2 N 0.17722 0.20356 0.23906
 C3 C 0.16198 0.19918 0.25731
 C4 C 0.14418 0.21657 0.25740
 C5 C 0.15002 0.23143 0.23847
 H6 H 0.16391 0.18456 0.26976
 H7 H 0.14025 0.24720 0.23288
 Cu8 Cu 0.20585 0.18596 0.22917
 Cu9 Cu 0.18691 0.23495 0.19955
 Cu10 Cu 0.23849 0.20436 0.18196
 N11 N 0.23538 0.16968 0.21955
 N12 N 0.24810 0.17707 0.20113
 C13 C 0.26746 0.16279 0.19829
 C14 C 0.26690 0.14547 0.21593
 C15 C 0.24626 0.15038 0.22907
 H16 H 0.28074 0.16484 0.18427
 H17 H 0.23974 0.14050 0.24438
 N18 N 0.22601 0.23234 0.16476
 N19 N 0.20650 0.24418 0.17146
 C20 C 0.20261 0.26211 0.15585
 C21 C 0.22033 0.26125 0.13834
 C22 C 0.23498 0.24233 0.14475
 H23 H 0.18786 0.27474 0.15690
 H24 H 0.25105 0.23632 0.13553
 H25 H 0.20175 0.20270 0.18917
 H26 H 0.22024 0.22207 0.20932
 N27 N 0.66608 0.72473 0.73402
 N28 N 0.67210 0.70431 0.74397
 C29 C 0.65617 0.69918 0.76144
 C30 C 0.63920 0.71736 0.76251
 C31 C 0.64616 0.73334 0.74491
 H32 H 0.65706 0.68352 0.77267
 H33 H 0.63724 0.74991 0.74034
 Cu34 Cu 0.70017 0.68639 0.73328
 Cu35 Cu 0.68425 0.73815 0.70735
 Cu36 Cu 0.73417 0.70594 0.68745
 N37 N 0.72793 0.66841 0.72193
 N38 N 0.74142 0.67621 0.70420
 C39 C 0.75952 0.66054 0.70033
 C40 C 0.75705 0.64178 0.71630
 C41 C 0.73691 0.64751 0.72985
 H42 H 0.77349 0.66259 0.68695
 H43 H 0.72961 0.63743 0.74465
 N44 N 0.72378 0.73640 0.67291
 N45 N 0.70489 0.74867 0.68058
 C46 C 0.70215 0.76820 0.66680
 C47 C 0.72018 0.76829 0.64961
 C48 C 0.73349 0.74782 0.65400
 H49 H 0.68772 0.78106 0.66882
 H50 H 0.74892 0.74163 0.64382
 H51 H 0.69750 0.70585 0.69440
 H52 H 0.71702 0.72271 0.71577
 N53 N 0.32682 0.77215 0.73194
 N54 N 0.32003 0.79017 0.74562
 C55 C 0.33462 0.79134 0.76478
 C56 C 0.35120 0.77285 0.76321
 C57 C 0.34588 0.76123 0.74195
 H58 H 0.33343 0.80467 0.77883
 H59 H 0.35534 0.74610 0.73423
 Cu60 Cu 0.29267 0.81011 0.73697
 Cu61 Cu 0.31058 0.76425 0.70210
 Cu62 Cu 0.26244 0.80041 0.68594
 N63 N 0.26555 0.83017 0.72792
 N64 N 0.25398 0.82646 0.70778
 C65 C 0.23616 0.84270 0.70582
 C66 C 0.23626 0.85719 0.72602
 C67 C 0.25542 0.84886 0.73952
 H68 H 0.22388 0.84386 0.69089
 H69 H 0.26170 0.85602 0.75636
 N70 N 0.27374 0.77311 0.66634
 N71 N 0.29188 0.75921 0.67261
 C72 C 0.29464 0.74182 0.65605
 C73 C 0.27753 0.74493 0.63844
 C74 C 0.26454 0.76494 0.64559
 H75 H 0.30795 0.72768 0.65673
 H76 H 0.24920 0.77269 0.63668
 H77 H 0.29841 0.79855 0.69523
 H78 H 0.27726 0.77818 0.71138
 N79 N 0.83289 0.27292 0.22904
 N80 N 0.82654 0.29142 0.24223
 C81 C 0.84286 0.29441 0.25977
 C82 C 0.86054 0.27700 0.25724
 C83 C 0.85342 0.26353 0.23762
 H84 H 0.84208 0.30821 0.27340
 H85 H 0.86219 0.24783 0.23030
 Cu86 Cu 0.79779 0.31003 0.23508
 Cu87 Cu 0.81391 0.26201 0.20204
 Cu88 Cu 0.76351 0.29534 0.18738
 N89 N 0.77026 0.32930 0.22548
 N90 N 0.75685 0.32349 0.20703
 C91 C 0.73918 0.33986 0.20466
 C92 C 0.74180 0.35701 0.22241
 C93 C 0.76167 0.34964 0.23537
 H94 H 0.72546 0.33947 0.19099
 H95 H 0.76922 0.35826 0.25095
 N96 N 0.77331 0.26624 0.16970
 N97 N 0.79257 0.25363 0.17536
 C98 C 0.79461 0.23497 0.16015
 C99 C 0.77558 0.23565 0.14430
 C100 C 0.76261 0.25590 0.15068
 H101 H 0.80902 0.22195 0.16039
 H102 H 0.74662 0.26260 0.14196
 H103 H 0.80010 0.29560 0.19391
 H104 H 0.78105 0.27591 0.21329
 N105 N 0.83078 0.72790 0.27231
 N106 N 0.82503 0.70948 0.25877
 C107 C 0.84104 0.70780 0.24064
 C108 C 0.85777 0.72605 0.24303
 C109 C 0.85060 0.73851 0.26333
 H110 H 0.84088 0.69416 0.22684
 H111 H 0.85917 0.75401 0.27121
 Cu112 Cu 0.79764 0.68921 0.26681
 Cu113 Cu 0.81270 0.73641 0.30104
 Cu114 Cu 0.76363 0.70065 0.31544
 N115 N 0.76986 0.66946 0.27480
 N116 N 0.75662 0.67408 0.29383
 C117 C 0.73890 0.65769 0.29541
 C118 C 0.74116 0.64185 0.27643
 C119 C 0.76101 0.64992 0.26366
 H120 H 0.72543 0.65710 0.30944
 H121 H 0.76853 0.64219 0.24754
 N122 N 0.77368 0.72837 0.33499
 N123 N 0.79223 0.74208 0.32939
 C124 C 0.79448 0.75936 0.34611
 C125 C 0.77663 0.75634 0.36315
 C126 C 0.76370 0.73654 0.35548
 H127 H 0.80817 0.77316 0.34611
 H128 H 0.74812 0.72869 0.36404
 H129 H 0.80016 0.70230 0.30838
 H130 H 0.78020 0.72193 0.29015
 N131 N 0.33139 0.22312 -0.23299
 N132 N 0.32308 0.20465 -0.24506
 C133 C 0.33774 0.20029 -0.26387
 C134 C 0.35626 0.21703 -0.26361
 C135 C 0.35159 0.23116 -0.24368
 H136 H 0.33498 0.18607 -0.27672
 H137 H 0.36210 0.24631 -0.23760
 Cu138 Cu 0.29369 0.18832 -0.23514
 Cu139 Cu 0.31518 0.23566 -0.20459
 Cu140 Cu 0.26285 0.20682 -0.18651
 N141 N 0.26475 0.17179 -0.22433
 N142 N 0.25268 0.17927 -0.20544
 C143 C 0.23357 0.16485 -0.20187
 C144 C 0.23360 0.14733 -0.21950
 C145 C 0.25371 0.15227 -0.23337
 H146 H 0.22085 0.16688 -0.18731
 H147 H 0.25977 0.14223 -0.24886
 N148 N 0.27612 0.23495 -0.16967
 N149 N 0.29622 0.24570 -0.17637
 C150 C 0.30068 0.26403 -0.16128
 C151 C 0.28254 0.26486 -0.14420
 C152 C 0.26724 0.24624 -0.15017
 H153 H 0.31586 0.27603 -0.16286
 H154 H 0.25084 0.24135 -0.14087
 H155 H 0.29909 0.20373 -0.19465
 H156 H 0.28094 0.22434 -0.21366
 N157 N 0.66915 0.27653 -0.22831
 N158 N 0.67622 0.29489 -0.24123
 C159 C 0.65999 0.29874 -0.25864
 C160 C 0.64152 0.28217 -0.25628
 C161 C 0.64821 0.26810 -0.23704
 H162 H 0.66155 0.31239 -0.27223
 H163 H 0.63872 0.25267 -0.23012
 Cu164 Cu 0.70601 0.31195 -0.23420
 Cu165 Cu 0.68763 0.26477 -0.20120
 Cu166 Cu 0.74006 0.29547 -0.18753
 N167 N 0.73521 0.32938 -0.22566
 N168 N 0.74848 0.32257 -0.20752
 C169 C 0.76742 0.33743 -0.20532
 C170 C 0.76608 0.35455 -0.22309
 C171 C 0.74529 0.34898 -0.23558
 H172 H 0.78085 0.33607 -0.19147
 H173 H 0.73810 0.35863 -0.25069
 N174 N 0.72873 0.26765 -0.16928
 N175 N 0.70885 0.25577 -0.17445
 C176 C 0.70603 0.23794 -0.15848
 C177 C 0.72491 0.23883 -0.14238
 C178 C 0.73901 0.25781 -0.14992
 H179 H 0.69122 0.22534 -0.15828
 H180 H 0.75559 0.26401 -0.14199
 H181 H 0.70314 0.29735 -0.19327
 H182 H 0.72067 0.27664 -0.21313
 N183 N 0.17261 0.77260 0.26708
 N184 N 0.17735 0.79256 0.25559
 C185 C 0.16222 0.79451 0.23694
 C186 C 0.14741 0.77456 0.23654
 C187 C 0.15432 0.76119 0.25614
 H188 H 0.16175 0.80941 0.22466
 H189 H 0.14637 0.74458 0.26218
 Cu190 Cu 0.20271 0.81422 0.26605
 Cu191 Cu 0.19016 0.76318 0.29561
 Cu192 Cu 0.23651 0.80054 0.31390
 N193 N 0.22931 0.83450 0.27622
 N194 N 0.24261 0.82893 0.29476
 C195 C 0.25989 0.84563 0.29754
 C196 C 0.25717 0.86278 0.27992
 C197 C 0.23765 0.85498 0.26657
 H198 H 0.27353 0.84537 0.31130
 H199 H 0.23031 0.86323 0.25075
 N200 N 0.22759 0.77106 0.33098
 N201 N 0.20999 0.75676 0.32403
 C202 C 0.20826 0.73837 0.33948
 C203 C 0.22547 0.74131 0.35707
 C204 C 0.23745 0.76220 0.35103
 H205 H 0.19532 0.72393 0.33827
 H206 H 0.25226 0.77041 0.36047
 H207 H 0.20018 0.79727 0.30614
 H208 H 0.22167 0.78060 0.28632
 N209 N 0.47638 0.41635 0.48552
 N210 N 0.45672 0.42284 0.49703
 C211 C 0.45320 0.40804 0.51567
 C212 C 0.47167 0.39136 0.51592
 C213 C 0.48597 0.39710 0.49640
 H214 H 0.43819 0.40925 0.52798
 H215 H 0.50223 0.38798 0.49070
 Cu216 Cu 0.43757 0.45001 0.48669
 Cu217 Cu 0.48809 0.43369 0.45760
 Cu218 Cu 0.45461 0.48287 0.43925
 N219 N 0.41919 0.47773 0.47649
 N220 N 0.42588 0.49066 0.45803
 C221 C 0.41013 0.50882 0.45526
 C222 C 0.39256 0.50710 0.47286
 C223 C 0.39900 0.48719 0.48606
 H224 H 0.41131 0.52236 0.44152
 H225 H 0.38992 0.48025 0.50168
 N226 N 0.48423 0.47207 0.42267
 N227 N 0.49700 0.45348 0.42979
 C228 C 0.51617 0.45080 0.41516
 C229 C 0.51552 0.46859 0.39799
 C230 C 0.49493 0.48163 0.40323
 H231 H 0.52945 0.43676 0.41678
 H232 H 0.48837 0.49701 0.39354
 H233 H 0.47304 0.46649 0.46677
 H234 H 0.45500 0.44669 0.44669
 N235 N -0.02367 -0.08396 0.98088
 N236 N -0.04241 -0.07819 0.99417
 C237 C -0.04456 -0.09422 1.01201
 C238 C -0.02629 -0.11099 1.00967
 C239 C -0.01333 -0.10381 0.98972
 H240 H -0.05836 -0.09387 1.02574
 H241 H 0.00263 -0.11213 0.98229
 Cu242 Cu -0.06206 -0.05037 0.98651
 Cu243 Cu -0.01364 -0.06512 0.95336
 Cu244 Cu -0.04802 -0.01507 0.93991
 N245 N -0.08116 -0.02216 0.97894
 N246 N -0.07572 -0.00860 0.96053
 C247 C -0.09192 0.00928 0.95904
 C248 C -0.10838 0.00691 0.97754
 C249 C -0.10099 -0.01331 0.98982
 H250 H -0.09185 0.02306 0.94548
 H251 H -0.10948 -0.02119 1.00531
 N252 N -0.01929 -0.02465 0.92126
 N253 N -0.00635 -0.04382 0.92630
 C254 C 0.01193 -0.04558 0.91046
 C255 C 0.01070 -0.02643 0.89492
 C256 C -0.00950 -0.01369 0.90211
 H257 H 0.02526 -0.05971 0.91020
 H258 H -0.01656 0.00232 0.89389
 H259 H -0.02792 -0.03290 0.96525
 H260 H -0.04733 -0.05159 0.94537
 N261 N 1.02114 0.58341 0.97738
 N262 N 1.03859 0.57569 0.99116
 C263 C 1.04094 0.59081 1.00987
 C264 C 1.02417 0.60904 1.00757
 C265 C 1.01185 0.60365 0.98675
 H266 H 1.05391 0.58891 1.02411
 H267 H 0.99713 0.61354 0.97897
 Cu268 Cu 1.05658 0.54682 0.98289
 Cu269 Cu 1.01157 0.56675 0.94831
 Cu270 Cu 1.04255 0.51470 0.93379
 N271 N 1.07369 0.51743 0.97469
 N272 N 1.06807 0.50495 0.95551
 C273 C 1.08292 0.48595 0.95371
 C274 C 1.09852 0.48633 0.97294
 C275 C 1.09234 0.50675 0.98572
 H276 H 1.08276 0.47307 0.93920
 H277 H 1.10116 0.51352 1.00156
 N278 N 1.01616 0.52758 0.91412
 N279 N 1.00447 0.54745 0.91965
 C280 C 0.98763 0.55159 0.90291
 C281 C 0.98895 0.53365 0.88583
 C282 C 1.00702 0.51855 0.89368
 H283 H 0.97508 0.56641 0.90322
 H284 H 1.01290 0.50213 0.88515
 H285 H 1.02253 0.53306 0.95911
 H286 H 1.04459 0.55088 0.94119
 N287 N 0.52791 0.07946 0.48584
 N288 N 0.54662 0.07117 0.49752
 C289 C 0.55098 0.08551 0.51645
 C290 C 0.53403 0.10375 0.51669
 C291 C 0.51970 0.09930 0.49698
 H292 H 0.56550 0.08287 0.52897
 H293 H 0.50446 0.10985 0.49121
 Cu294 Cu 0.56392 0.04268 0.48696
 Cu295 Cu 0.51574 0.06400 0.45708
 Cu296 Cu 0.54764 0.01503 0.43574
 N297 N 0.58212 0.01584 0.47381
 N298 N 0.57592 0.00537 0.45366
 C299 C 0.59160 -0.01240 0.44872
 C300 C 0.60863 -0.01310 0.46674
 C301 C 0.60197 0.00502 0.48238
 H302 H 0.59038 -0.02410 0.43333
 H303 H 0.61101 0.00986 0.49880
 N304 N 0.51851 0.02737 0.42008
 N305 N 0.50625 0.04596 0.42826
 C306 C 0.48710 0.04969 0.41401
 C307 C 0.48730 0.03256 0.39600
 C308 C 0.50749 0.01879 0.40042
 H309 H 0.47398 0.06376 0.41668
 H310 H 0.51348 0.00348 0.39007
 H311 H 0.52871 0.03003 0.46407
 H312 H 0.54897 0.05051 0.44681
 N313 N -0.02187 0.08307 0.51793
 N314 N -0.04241 0.07884 0.50711
 C315 C -0.04505 0.09464 0.48914
 C316 C -0.02497 0.10937 0.48856
 C317 C -0.01074 0.10159 0.50724
 H318 H -0.06031 0.09536 0.47720
 H319 H 0.00632 0.10899 0.51290
 Cu320 Cu -0.06347 0.05277 0.51711
 Cu321 Cu -0.01115 0.06461 0.54521
 Cu322 Cu -0.04664 0.01680 0.56268
 N323 N -0.08194 0.02451 0.52609
 N324 N -0.07539 0.01058 0.54381
 C325 C -0.09114 -0.00768 0.54565
 C326 C -0.10850 -0.00512 0.52814
 C327 C -0.10204 0.01554 0.51604
 H328 H -0.09002 -0.02198 0.55859
 H329 H -0.11103 0.02334 0.50086
 N330 N -0.01681 0.02600 0.57944
 N331 N -0.00316 0.04405 0.57247
 C332 C 0.01596 0.04579 0.58710
 C333 C 0.01442 0.02788 0.60406
 C334 C -0.00673 0.01583 0.59881
 H335 H 0.02975 0.05939 0.58577
 H336 H -0.01415 0.00078 0.60847
 H337 H -0.02861 0.03327 0.53492
 H338 H -0.04488 0.05318 0.55664
 N339 N 0.47708 0.58062 0.02266
 N340 N 0.45804 0.57500 0.00989
 C341 C 0.45583 0.59087 -0.00806
 C342 C 0.47460 0.60715 -0.00661
 C343 C 0.48766 0.60014 0.01323
 H344 H 0.44171 0.59068 -0.02133
 H345 H 0.50346 0.60872 0.02054
 Cu346 Cu 0.43834 0.54725 0.01784
 Cu347 Cu 0.48654 0.56264 0.05091
 Cu348 Cu 0.45121 0.51370 0.06586
 N349 N 0.41896 0.51939 0.02623
 N350 N 0.42411 0.50647 0.04513
 C351 C 0.40827 0.48832 0.04688
 C352 C 0.39248 0.48966 0.02787
 C353 C 0.39961 0.50979 0.01527
 H354 H 0.40821 0.47508 0.06094
 H355 H 0.39127 0.51687 -0.00065
 N356 N 0.47938 0.52375 0.08464
 N357 N 0.49305 0.54222 0.07886
 C358 C 0.51090 0.54423 0.09502
 C359 C 0.50825 0.52627 0.11183
 C360 C 0.48811 0.51359 0.10459
 H361 H 0.52484 0.55777 0.09476
 H362 H 0.48045 0.49797 0.11304
 H363 H 0.47204 0.53040 0.04001
 H364 H 0.45251 0.55014 0.05896
 N365 N 0.52379 -0.08131 0.01535
 N366 N 0.54223 -0.07310 0.00302
 C367 C 0.54580 -0.08724 -0.01627
 C368 C 0.52860 -0.10525 -0.01602
 C369 C 0.51501 -0.10091 0.00434
 H370 H 0.55982 -0.08454 -0.02944
 H371 H 0.49974 -0.11127 0.01053
 Cu372 Cu 0.55944 -0.04450 0.01327
 Cu373 Cu 0.51229 -0.06583 0.04453
 Cu374 Cu 0.54294 -0.01499 0.06322
 N375 N 0.57682 -0.01625 0.02419
 N376 N 0.57004 -0.00466 0.04359
 C377 C 0.58465 0.01428 0.04698
 C378 C 0.60154 0.01464 0.02867
 C379 C 0.59613 -0.00512 0.01464
 H380 H 0.58318 0.02663 0.06184
 H381 H 0.60561 -0.01081 -0.00134
 N382 N 0.51510 -0.02828 0.08065
 N383 N 0.50343 -0.04763 0.07355
 C384 C 0.48525 -0.05201 0.08898
 C385 C 0.48547 -0.03455 0.10665
 C386 C 0.50465 -0.01987 0.10079
 H387 H 0.47277 -0.06677 0.08734
 H388 H 0.51037 -0.00410 0.11053
 H389 H 0.52410 -0.03176 0.03610
 H390 H 0.54499 -0.05082 0.05395
 N391 N 1.02753 0.42082 0.51098
 N392 N 1.04734 0.42776 0.50004
 C393 C 1.05144 0.41330 0.48111
 C394 C 1.03319 0.39638 0.48014
 C395 C 1.01839 0.40170 0.49942
 H396 H 1.06672 0.41483 0.46917
 H397 H 1.00222 0.39219 0.50465
 Cu398 Cu 1.06605 0.45472 0.51198
 Cu399 Cu 1.01515 0.43691 0.53945
 Cu400 Cu 1.04803 0.48528 0.56080
 N401 N 1.08408 0.48217 0.52381
 N402 N 1.07707 0.49384 0.54310
 C403 C 1.09266 0.51177 0.54752
 C404 C 1.11055 0.51122 0.53018
 C405 C 1.10434 0.49239 0.51525
 H406 H 1.09089 0.52449 0.56206
 H407 H 1.11391 0.48669 0.49932
 N408 N 1.01816 0.47387 0.57616
 N409 N 1.00560 0.45552 0.56799
 C410 C 0.98620 0.45223 0.58217
 C411 C 0.98652 0.46938 0.60013
 C412 C 1.00706 0.48272 0.59577
 H413 H 0.97293 0.43831 0.57960
 H414 H 1.01333 0.49781 0.60623
 H415 H 1.03017 0.47002 0.53217
 H416 H 1.04801 0.44942 0.55147
 C417 C 0.41339 0.00750 0.21905
 H418 H 0.41535 0.02443 0.22835
 C419 C 0.42798 0.00226 0.19930
 H420 H 0.44132 0.01524 0.19361
 C421 C 0.39393 -0.03008 0.21557
 H422 H 0.38100 -0.04289 0.22226
 C423 C 0.40816 -0.03608 0.19578
 H424 H 0.40592 -0.05368 0.18804
 N425 N 0.39628 -0.00833 0.22634
 C426 C 0.34066 0.03545 0.26026
 H427 H 0.33854 0.02604 0.27702
 C428 C 0.32636 0.05540 0.25541
 H429 H 0.31307 0.06107 0.26850
 C430 C 0.35973 0.03855 0.22244
 H431 H 0.37221 0.03150 0.20931
 C432 C 0.34580 0.05857 0.21683
 H433 H 0.34776 0.06623 0.19923
 Zn434 Zn 0.37580 0.00048 0.25212
 N435 N 0.35731 0.02775 0.24406
 C436 C 0.39493 0.02930 0.28930
 N437 N 0.39526 0.00715 0.27908
 C438 C 0.41022 -0.01026 0.28724
 C439 C 0.42484 -0.00601 0.30708
 C440 C 0.40926 0.03432 0.30916
 C441 C 0.33761 -0.02967 0.24101
 C442 C 0.32052 -0.04771 0.24418
 C443 C 0.33642 -0.05454 0.28369
 C444 C 0.35329 -0.03637 0.27972
 N445 N 0.35364 -0.02446 0.25857
 H446 H 0.38383 0.04330 0.28191
 H447 H 0.41077 -0.02747 0.27827
 H448 H 0.43681 -0.02006 0.31306
 H449 H 0.40902 0.05233 0.31634
 H450 H 0.33837 -0.01997 0.22431
 H451 H 0.30877 -0.05203 0.22942
 H452 H 0.33693 -0.06424 0.30040
 H453 H 0.36608 -0.03190 0.29353
 C454 C 0.32928 0.06779 0.23372
 C455 C 0.42498 -0.01947 0.18678
 C456 C 0.31928 -0.06012 0.26602
 C457 C 0.42397 0.01631 0.31889
 C458 C 0.08930 -0.01215 0.71630
 H459 H 0.08861 -0.02849 0.72663
 C460 C 0.07461 -0.00959 0.69624
 H461 H 0.06243 -0.02400 0.69169
 C462 C 0.10488 0.02698 0.71112
 H463 H 0.11616 0.04146 0.71735
 C464 C 0.09041 0.03036 0.69106
 H465 H 0.09073 0.04758 0.68224
 N466 N 0.10446 0.00578 0.72299
 C467 C 0.16017 -0.03050 0.76414
 H468 H 0.16014 -0.01941 0.78007
 C469 C 0.17595 -0.04992 0.76234
 H470 H 0.18819 -0.05299 0.77695
 C471 C 0.14497 -0.03840 0.72542
 H472 H 0.13323 -0.03359 0.71085
 C473 C 0.16045 -0.05799 0.72286
 H474 H 0.16037 -0.06808 0.70627
 Zn475 Zn 0.12368 0.00099 0.75046
 N476 N 0.14473 -0.02542 0.74606
 C477 C 0.10332 -0.02514 0.78934
 N478 N 0.10242 -0.00458 0.77644
 C479 C 0.08584 0.01269 0.78144
 C480 C 0.07020 0.01027 0.80091
 C481 C 0.08795 -0.02834 0.80892
 C482 C 0.15928 0.03543 0.74011
 C483 C 0.17371 0.05556 0.74414
 C484 C 0.15519 0.06005 0.78304
 C485 C 0.14108 0.03990 0.77824
 N486 N 0.14295 0.02835 0.75685
 H487 H 0.11594 -0.03911 0.78453
 H488 H 0.08499 0.02853 0.77038
 H489 H 0.05706 0.02422 0.80407
 H490 H 0.08891 -0.04489 0.81890
 H491 H 0.16100 0.02546 0.72355
 H492 H 0.18668 0.06080 0.73061
 H493 H 0.15365 0.06826 0.80050
 H494 H 0.12891 0.03334 0.79183
 C495 C 0.17582 -0.06450 0.74170
 C496 C 0.07558 0.01164 0.68277
 C497 C 0.17130 0.06870 0.76557
 C498 C 0.07166 -0.01012 0.81557
 C499 C 0.58845 0.48617 0.22078
 H500 H 0.58879 0.46973 0.23097
 C501 C 0.57174 0.48898 0.20241
 H502 H 0.55995 0.47413 0.19835
 C503 C 0.60454 0.52474 0.21339
 H504 H 0.61721 0.53874 0.21783
 C505 C 0.58814 0.52831 0.19487
 H506 H 0.58885 0.54488 0.18491
 N507 N 0.60443 0.50389 0.22589
 C508 C 0.66295 0.46761 0.26273
 H509 H 0.66325 0.47817 0.27901
 C510 C 0.67946 0.44902 0.25950
 H511 H 0.69175 0.44514 0.27390
 C512 C 0.64537 0.45953 0.22505
 H513 H 0.63215 0.46379 0.21159
 C514 C 0.66165 0.44079 0.22102
 H515 H 0.66031 0.43046 0.20465
 Zn516 Zn 0.62572 0.49891 0.25174
 N517 N 0.64631 0.47248 0.24568
 C518 C 0.60785 0.47178 0.29074
 N519 N 0.60667 0.49325 0.27941
 C520 C 0.59093 0.51048 0.28675
 C521 C 0.57636 0.50684 0.30688
 C522 C 0.59356 0.46735 0.31085
 C523 C 0.66158 0.53073 0.23779
 C524 C 0.67804 0.54953 0.23975
 C525 C 0.66235 0.55791 0.27925
 C526 C 0.64616 0.53893 0.27651
 N527 N 0.64605 0.52581 0.25597
 H528 H 0.61953 0.45781 0.28397
 H529 H 0.58966 0.52706 0.27688
 H530 H 0.56374 0.52071 0.31213
 H531 H 0.59443 0.44982 0.31894
 H532 H 0.66114 0.51996 0.22166
 H533 H 0.68948 0.55321 0.22455
 H534 H 0.66201 0.56828 0.29566
 H535 H 0.63393 0.53456 0.29093
 C536 C 0.67950 0.43566 0.23808
 C537 C 0.57093 0.51058 0.18949
 C538 C 0.67904 0.56319 0.26096
 C539 C 0.57807 0.48531 0.31978
 C540 C 0.90994 0.51144 0.71019
 H541 H 0.91098 0.52833 0.71971
 C542 C 0.92473 0.50728 0.69033
 H543 H 0.93733 0.52104 0.68488
 C544 C 0.89311 0.47261 0.70671
 H545 H 0.88130 0.45885 0.71355
 C546 C 0.90758 0.46768 0.68681
 H547 H 0.90675 0.44995 0.67903
 N548 N 0.89412 0.49440 0.71762
 C549 C 0.83753 0.53390 0.75511
 H550 H 0.83756 0.52473 0.77213
 C551 C 0.82129 0.55253 0.75114
 H552 H 0.80923 0.55788 0.76547
 C553 C 0.85388 0.53838 0.71621
 H554 H 0.86655 0.53279 0.70257
 C555 C 0.83784 0.55704 0.71141
 H556 H 0.83917 0.56595 0.69434
 Zn557 Zn 0.87438 0.50134 0.74446
 N558 N 0.85349 0.52729 0.73781
 C559 C 0.89363 0.53035 0.78173
 N560 N 0.89506 0.50884 0.77031
 C561 C 0.91179 0.49227 0.77664
 C562 C 0.92776 0.49694 0.79532
 C563 C 0.90924 0.53578 0.80050
 C564 C 0.83830 0.46764 0.73524
 C565 C 0.82382 0.44758 0.73920
 C566 C 0.84252 0.44291 0.77779
 C567 C 0.85668 0.46303 0.77306
 N568 N 0.85479 0.47456 0.75179
 H569 H 0.88038 0.54341 0.77635
 H570 H 0.91259 0.47530 0.76724
 H571 H 0.94054 0.48324 0.80041
 H572 H 0.90690 0.55268 0.80969
 H573 H 0.83660 0.47763 0.71879
 H574 H 0.81073 0.44254 0.72579
 H575 H 0.84410 0.43446 0.79507
 H576 H 0.86909 0.46944 0.78647
 C577 C 0.82076 0.56403 0.72879
 C578 C 0.92312 0.48544 0.67776
 C579 C 0.82643 0.43427 0.76034
 C580 C 0.92706 0.51918 0.80726
 C581 C 0.21387 0.41365 0.01022
 H582 H 0.22517 0.41513 0.02588
 C583 C 0.19364 0.42831 0.00799
 H584 H 0.19011 0.44138 0.02188
 C585 C 0.20627 0.39575 -0.02747
 H586 H 0.21154 0.38338 -0.04146
 C587 C 0.18584 0.41007 -0.03042
 H588 H 0.17572 0.40863 -0.04687
 N589 N 0.21951 0.39744 -0.00713
 C590 C 0.25902 0.34165 0.03024
 H591 H 0.27597 0.34181 0.02058
 C592 C 0.25542 0.32539 0.04882
 H593 H 0.27001 0.31351 0.05363
 C594 C 0.21988 0.35764 0.03603
 H595 H 0.20600 0.37016 0.03097
 C596 C 0.21548 0.34164 0.05468
 H597 H 0.19847 0.34281 0.06412
 Zn598 Zn 0.24707 0.37828 -0.00179
 N599 N 0.24138 0.35739 0.02424
 C600 C 0.28601 0.39778 0.02525
 N601 N 0.27302 0.39933 0.00476
 C602 C 0.27799 0.41635 -0.01186
 C603 C 0.29761 0.43172 -0.00894
 C604 C 0.30576 0.41286 0.02893
 C605 C 0.23872 0.34205 -0.03616
 C606 C 0.24430 0.32701 -0.05548
 C607 C 0.28271 0.34696 -0.05927
 C608 C 0.27640 0.36156 -0.03991
 N609 N 0.25465 0.35907 -0.02890
 H610 H 0.28119 0.38482 0.03874
 H611 H 0.26685 0.41771 -0.02762
 H612 H 0.30084 0.44522 -0.02237
 H613 H 0.31578 0.41137 0.04542
 H614 H 0.22171 0.34006 -0.02683
 H615 H 0.23136 0.31358 -0.06101
 H616 H 0.30015 0.34981 -0.06728
 H617 H 0.28918 0.37466 -0.03352
 C618 C 0.23311 0.32466 0.06092
 C619 C 0.17873 0.42611 -0.01220
 C620 C 0.26660 0.32924 -0.06742
 C621 C 0.31249 0.42949 0.01125
 C622 C 0.71384 0.08901 -0.01167
 H623 H 0.72420 0.08723 -0.02803
 C624 C 0.69351 0.07472 -0.00797
 H625 H 0.68849 0.06180 -0.02156
 C626 C 0.70882 0.10703 0.02643
 H627 H 0.71529 0.11903 0.04018
 C628 C 0.68847 0.09305 0.03091
 H629 H 0.67996 0.09449 0.04828
 N630 N 0.72077 0.10515 0.00523
 C631 C 0.76322 0.15828 -0.03339
 H632 H 0.77967 0.15782 -0.02308
 C633 C 0.76095 0.17443 -0.05223
 H634 H 0.77625 0.18558 -0.05657
 C635 C 0.72391 0.14336 -0.04034
 H636 H 0.70937 0.13146 -0.03547
 C637 C 0.72085 0.15927 -0.05930
 H638 H 0.70412 0.15892 -0.06919
 Zn639 Zn 0.74876 0.12368 -0.00050
 N640 N 0.74484 0.14322 -0.02776
 C641 C 0.78885 0.10174 -0.02439
 N642 N 0.77479 0.10207 -0.00442
 C643 C 0.77849 0.08634 0.01367
 C644 C 0.79721 0.06967 0.01237
 C645 C 0.80781 0.08535 -0.02645
 C646 C 0.73743 0.16127 0.03083
 C647 C 0.74011 0.17651 0.05049
 C648 C 0.77849 0.15789 0.05850
 C649 C 0.77502 0.14291 0.03875
 N650 N 0.75443 0.14442 0.02576
 H651 H 0.78541 0.11412 -0.03877
 H652 H 0.76692 0.08692 0.02930
 H653 H 0.79965 0.05800 0.02745
 H654 H 0.81897 0.08552 -0.04240
 H655 H 0.72161 0.16264 0.01967
 H656 H 0.72641 0.18990 0.05389
 H657 H 0.79519 0.15654 0.06833
 H658 H 0.78885 0.13017 0.03381
 C659 C 0.73919 0.17572 -0.06504
 C660 C 0.68001 0.07709 0.01329
 C661 C 0.76044 0.17434 0.06529
 C662 C 0.81223 0.06883 -0.00801
 C663 C 0.21875 0.59022 0.48888
 H664 H 0.22852 0.58884 0.47213
 C665 C 0.19970 0.57458 0.49369
 H666 H 0.19469 0.56140 0.48034
 C667 C 0.21351 0.60911 0.52653
 H668 H 0.21909 0.62239 0.53946
 C669 C 0.19436 0.59386 0.53208
 H670 H 0.18518 0.59659 0.54891
 N671 N 0.22527 0.60707 0.50523
 C672 C 0.26529 0.66099 0.46528
 H673 H 0.28190 0.66087 0.47536
 C674 C 0.26242 0.67707 0.44650
 H675 H 0.27740 0.68857 0.44192
 C676 C 0.22624 0.64517 0.45886
 H677 H 0.21209 0.63286 0.46391
 C678 C 0.22254 0.66107 0.43998
 H679 H 0.20572 0.66029 0.43028
 Zn680 Zn 0.25244 0.62648 0.49850
 N681 N 0.24732 0.64555 0.47116
 C682 C 0.29121 0.60494 0.47264
 N683 N 0.27900 0.60567 0.49378
 C684 C 0.28460 0.59053 0.51189
 C685 C 0.30310 0.57378 0.50914
 C686 C 0.30983 0.58841 0.46910
 C687 C 0.24050 0.66466 0.52818
 C688 C 0.24305 0.68164 0.54636
 C689 C 0.28178 0.66442 0.55574
 C690 C 0.27845 0.64769 0.53737
 N691 N 0.25797 0.64805 0.52411
 H692 H 0.28637 0.61692 0.45833
 H693 H 0.27459 0.59148 0.52852
 H694 H 0.30753 0.56258 0.52421
 H695 H 0.31952 0.58845 0.45226
 H696 H 0.22437 0.66450 0.51738
 H697 H 0.22828 0.69385 0.54963
 H698 H 0.29799 0.66350 0.56641
 H699 H 0.29226 0.63450 0.53373
 C700 C 0.24043 0.67798 0.43407
 C701 C 0.18750 0.57581 0.51579
 C702 C 0.26421 0.68214 0.56017
 C703 C 0.31556 0.57193 0.48720
 C704 C 0.71879 0.91265 0.50932
 H705 H 0.72866 0.91550 0.52574
 C706 C 0.69952 0.92762 0.50357
 H707 H 0.69452 0.94190 0.51582
 C708 C 0.71345 0.89062 0.47347
 H709 H 0.71909 0.87639 0.46157
 C710 C 0.69406 0.90513 0.46703
 H711 H 0.68505 0.90102 0.45049
 N712 N 0.72523 0.89442 0.49442
 C713 C 0.76234 0.84197 0.53872
 H714 H 0.77890 0.83982 0.52862
 C715 C 0.75822 0.82810 0.55904
 H716 H 0.77170 0.81515 0.56432
 C717 C 0.72411 0.86039 0.54299
 H718 H 0.71051 0.87241 0.53624
 C719 C 0.71923 0.84687 0.56341
 H720 H 0.70169 0.84866 0.57168
 Zn721 Zn 0.75195 0.87511 0.50283
 N722 N 0.74552 0.85798 0.53130
 C723 C 0.79080 0.89689 0.52791
 N724 N 0.77866 0.89585 0.50687
 C725 C 0.78435 0.91070 0.48849
 C726 C 0.80274 0.92761 0.49093
 C727 C 0.80935 0.91350 0.53111
 C728 C 0.74049 0.83521 0.47536
 C729 C 0.74279 0.81797 0.45736
 C730 C 0.78110 0.83544 0.44649
 C731 C 0.77802 0.85241 0.46471
 N732 N 0.75779 0.85215 0.47850
 H733 H 0.78594 0.88509 0.54241
 H734 H 0.77441 0.90949 0.47192
 H735 H 0.80715 0.93863 0.47570
 H736 H 0.81896 0.91377 0.54792
 H737 H 0.72453 0.83549 0.48657
 H738 H 0.72806 0.80561 0.45482
 H739 H 0.79705 0.83634 0.43527
 H740 H 0.79168 0.86591 0.46759
 C741 C 0.73666 0.83080 0.57214
 C742 C 0.68683 0.92415 0.48209
 C743 C 0.76349 0.81766 0.44269
 C744 C 0.81509 0.92978 0.51279
 C745 C 0.01246 0.22119 0.41074
 H746 H 0.02800 0.23289 0.41152
 C747 C 0.01014 0.20247 0.42703
 H748 H 0.02382 0.20065 0.44056
 C749 C -0.02473 0.21098 0.39281
 H750 H -0.03848 0.21458 0.37968
 C751 C -0.02774 0.19195 0.40872
 H752 H -0.04391 0.18113 0.40767
 N753 N -0.00453 0.22475 0.39371
 C754 C 0.03362 0.25712 0.33369
 H755 H 0.02336 0.27343 0.33135
 C756 C 0.05282 0.25186 0.31829
 H757 H 0.05733 0.26435 0.30420
 C758 C 0.04016 0.22116 0.35499
 H759 H 0.03510 0.20911 0.36920
 C760 C 0.05952 0.21523 0.34007
 H761 H 0.06910 0.19889 0.34384
 Zn762 Zn 0.00137 0.24991 0.37184
 N763 N 0.02779 0.24191 0.35173
 C764 C 0.02990 0.28918 0.38727
 N765 N 0.00842 0.27775 0.38991
 C766 C -0.00803 0.28521 0.40642
 C767 C -0.00348 0.30539 0.42052
 C768 C 0.03521 0.30942 0.40102
 C769 C -0.03186 0.23731 0.33653
 C770 C -0.05064 0.24064 0.32035
 C771 C -0.05618 0.28063 0.33605
 C772 C -0.03732 0.27652 0.35197
 N773 N -0.02554 0.25515 0.35187
 H774 H 0.04317 0.28242 0.37476
 H775 H -0.02470 0.27538 0.40865
 H776 H -0.01676 0.31091 0.43370
 H777 H 0.05275 0.31749 0.39883
 H778 H -0.02218 0.22048 0.33681
 H779 H -0.05565 0.22588 0.30880
 H780 H -0.06556 0.29761 0.33690
 H781 H -0.03198 0.29056 0.36419
 C782 C 0.06608 0.23056 0.32116
 C783 C -0.00978 0.18688 0.42566
 C784 C -0.06259 0.26287 0.31931
 C785 C 0.01818 0.31821 0.41763
 C786 C -0.01329 0.71698 0.09092
 H787 H -0.02962 0.72759 0.09137
 C788 C -0.01080 0.69847 0.07424
 H789 H -0.02580 0.69461 0.06258
 C790 C 0.02553 0.70900 0.10642
 H791 H 0.03980 0.71334 0.11877
 C792 C 0.02880 0.69035 0.08999
 H793 H 0.04536 0.68011 0.09049
 N794 N 0.00477 0.72196 0.10651
 C795 C -0.03029 0.76312 0.16331
 H796 H -0.01914 0.77903 0.16301
 C797 C -0.04910 0.76127 0.17985
 H798 H -0.05241 0.77635 0.19155
 C799 C -0.03954 0.72489 0.14729
 H800 H -0.03561 0.71063 0.13474
 C801 C -0.05854 0.72227 0.16356
 H802 H -0.06935 0.70613 0.16298
 Zn803 Zn 0.00074 0.74904 0.12661
 N804 N -0.02590 0.74512 0.14744
 C805 C -0.02447 0.78891 0.10690
 N806 N -0.00397 0.77556 0.10619
 C807 C 0.01359 0.77990 0.08976
 C808 C 0.01098 0.79828 0.07315
 C809 C -0.02786 0.80748 0.09056
 C810 C 0.03375 0.73612 0.16184
 C811 C 0.05379 0.73836 0.17668
 C812 C 0.06172 0.77707 0.15924
 C813 C 0.04156 0.77406 0.14468
 N814 N 0.02832 0.75360 0.14589
 H815 H -0.03839 0.78503 0.11989
 H816 H 0.02971 0.76897 0.08959
 H817 H 0.02574 0.80161 0.06097
 H818 H -0.04420 0.81805 0.09159
 H819 H 0.02239 0.72040 0.16303
 H820 H 0.05722 0.72437 0.18953
 H821 H 0.07172 0.79370 0.15826
 H822 H 0.03637 0.78823 0.13265
 C823 C -0.06328 0.74035 0.18059
 C824 C 0.01087 0.68536 0.07295
 C825 C 0.06864 0.75875 0.17502
 C826 C -0.01031 0.81203 0.07288
 C827 C 0.49453 0.21499 0.59162
 H828 H 0.47787 0.22488 0.58974
 C829 C 0.49917 0.19526 0.57688
 H830 H 0.48600 0.19019 0.56354
 C831 C 0.53214 0.21017 0.61084
 H832 H 0.54519 0.21636 0.62373
 C833 C 0.53752 0.19030 0.59648
 H834 H 0.55492 0.18196 0.59858
 N835 N 0.51070 0.22172 0.60854
 C836 C 0.46754 0.25755 0.66343
 H837 H 0.47707 0.27441 0.66498
 C838 C 0.44736 0.25315 0.67777
 H839 H 0.44163 0.26669 0.69051
 C840 C 0.46421 0.21915 0.64562
 H841 H 0.47118 0.20567 0.63353
 C842 C 0.44395 0.21399 0.65961
 H843 H 0.43610 0.19635 0.65811
 Zn844 Zn 0.50253 0.24824 0.62822
 N845 N 0.47524 0.24084 0.64737
 C846 C 0.47377 0.28526 0.60846
 N847 N 0.49570 0.27440 0.60782
 C848 C 0.51301 0.28146 0.59207
 C849 C 0.50905 0.30102 0.57708
 C850 C 0.46902 0.30484 0.59376
 C851 C 0.53477 0.23957 0.66575
 C852 C 0.55331 0.24457 0.68184
 C853 C 0.55782 0.28353 0.66379
 C854 C 0.53923 0.27777 0.64803
 N855 N 0.52820 0.25604 0.64917
 H856 H 0.45981 0.27870 0.62025
 H857 H 0.53001 0.27198 0.59132
 H858 H 0.52307 0.30625 0.56463
 H859 H 0.45120 0.31264 0.59436
 H860 H 0.52564 0.22245 0.66636
 H861 H 0.55857 0.23097 0.69453
 H862 H 0.56666 0.30063 0.66171
 H863 H 0.53366 0.29075 0.63492
 C864 C 0.43471 0.23139 0.67551
 C865 C 0.52062 0.18209 0.57959
 C866 C 0.56486 0.26703 0.68142
 C867 C 0.48712 0.31365 0.57839
 C868 C 0.50821 0.72091 0.91577
 H869 H 0.52321 0.73331 0.91617
 C870 C 0.50690 0.70243 0.93244
 H871 H 0.52091 0.70148 0.94569
 C872 C 0.47154 0.70849 0.89815
 H873 H 0.45767 0.71103 0.88491
 C874 C 0.46955 0.68967 0.91445
 H875 H 0.45407 0.67787 0.91353
 N876 N 0.49098 0.72331 0.89876
 C877 C 0.52679 0.75569 0.83742
 H878 H 0.51589 0.77155 0.83486
 C879 C 0.54602 0.75084 0.82194
 H880 H 0.54994 0.76322 0.80758
 C881 C 0.53510 0.72061 0.85956
 H882 H 0.53082 0.70881 0.87423
 C883 C 0.55451 0.71510 0.84457
 H884 H 0.56505 0.69944 0.84875
 Zn885 Zn 0.49547 0.74820 0.87624
 N886 N 0.52182 0.74071 0.85590
 C887 C 0.52324 0.78834 0.89050
 N888 N 0.50193 0.77669 0.89355
 C889 C 0.48561 0.78415 0.91019
 C890 C 0.49020 0.80445 0.92413
 C891 C 0.52858 0.80870 0.90406
 C892 C 0.46274 0.73347 0.84141
 C893 C 0.44327 0.73517 0.82578
 C894 C 0.43520 0.77478 0.84138
 C895 C 0.45485 0.77232 0.85669
 N896 N 0.46798 0.75175 0.85666
 H897 H 0.53645 0.78158 0.87793
 H898 H 0.46913 0.77411 0.91280
 H899 H 0.47712 0.80985 0.93754
 H900 H 0.54605 0.81686 0.90166
 H901 H 0.47396 0.71761 0.84122
 H902 H 0.44024 0.72048 0.81357
 H903 H 0.42511 0.79141 0.84152
 H904 H 0.45975 0.78700 0.86835
 C905 C 0.56008 0.73010 0.82512
 C906 C 0.48766 0.68597 0.93161
 C907 C 0.42881 0.75592 0.82585
 C908 C 0.51174 0.81740 0.92090
 C909 C 0.12329 0.21940 0.27460
 C910 C 0.09901 0.22373 0.26222
 C911 C 0.08019 0.22682 0.27767
 C912 C 0.08717 0.22541 0.30427
 C913 C 0.09979 0.20081 0.30636
 C914 C 0.11860 0.19777 0.29094
 C915 C 0.12637 0.24072 0.29171
 C916 C 0.10762 0.24382 0.30719
 H917 H 0.09672 0.22393 0.24295
 H918 H 0.06187 0.22959 0.27150
 H919 H 0.09383 0.18609 0.31742
 H920 H 0.12807 0.18082 0.28963
 H921 H 0.14210 0.25230 0.29179
 H922 H 0.10740 0.25806 0.32049
 C923 C 0.61799 0.71983 0.77932
 C924 C 0.61251 0.69765 0.79467
 C925 C 0.59336 0.70044 0.80971
 C926 C 0.58131 0.72536 0.80834
 C927 C 0.60197 0.74328 0.81244
 C928 C 0.62104 0.74041 0.79732
 C929 C 0.59412 0.72510 0.76655
 C930 C 0.57497 0.72791 0.78165
 H931 H 0.62153 0.68051 0.79277
 H932 H 0.58652 0.68533 0.81973
 H933 H 0.60164 0.75703 0.82623
 H934 H 0.63695 0.75171 0.79819
 H935 H 0.59230 0.72602 0.74725
 H936 H 0.55685 0.73110 0.77515
 C937 C 0.37164 0.76763 0.78008
 C938 C 0.39444 0.78207 0.77433
 C939 C 0.41314 0.77768 0.78933
 C940 C 0.40758 0.75922 0.80894
 C941 C 0.38472 0.76880 0.82151
 C942 C 0.36602 0.77324 0.80647
 C943 C 0.37987 0.74132 0.78019
 C944 C 0.39854 0.73685 0.79524
 H945 H 0.39578 0.79464 0.75962
 H946 H 0.43048 0.78651 0.78735
 H947 H 0.38314 0.77125 0.84073
 H948 H 0.34863 0.77948 0.81294
 H949 H 0.37084 0.72706 0.77047
 H950 H 0.40456 0.71866 0.79825
 C951 C -0.11920 0.27331 0.27256
 C952 C -0.10523 0.29642 0.27831
 C953 C -0.08632 0.29315 0.29340
 C954 C -0.08301 0.26699 0.30166
 C955 C -0.10759 0.25976 0.31212
 C956 C -0.12643 0.26306 0.29700
 C957 C -0.09972 0.25606 0.26285
 C958 C -0.08084 0.25289 0.27796
 H959 H -0.10914 0.31370 0.27035
 H960 H -0.07409 0.30767 0.29779
 H961 H -0.10997 0.25260 0.33000
 H962 H -0.14485 0.25867 0.30200
 H963 H -0.09956 0.24842 0.24499
 H964 H -0.06501 0.24277 0.27254
 C965 C -0.12075 0.73053 0.22699
 C966 C -0.10407 0.75118 0.23471
 C967 C -0.08486 0.75459 0.21989
 C968 C -0.08401 0.73719 0.19832
 C969 C -0.08474 0.71222 0.20999
 C970 C -0.10394 0.70874 0.22484
 C971 C -0.12783 0.73647 0.20120
 C972 C -0.10871 0.73993 0.18627
 H973 H -0.10607 0.76137 0.25114
 H974 H -0.07082 0.76721 0.22459
 H975 H -0.07100 0.69861 0.20729
 H976 H -0.10661 0.69216 0.23459
 H977 H -0.14635 0.73799 0.19519
 H978 H -0.11095 0.74440 0.16754
 C979 C 0.37597 0.21993 0.72000
 C980 C 0.37697 0.20228 0.69873
 C981 C 0.39598 0.20591 0.68368
 C982 C 0.41267 0.22675 0.69124
 C983 C 0.39541 0.24833 0.69323
 C984 C 0.37639 0.24481 0.70828
 C985 C 0.40066 0.21748 0.73210
 C986 C 0.41972 0.22107 0.71714
 H987 H 0.36334 0.18895 0.69473
 H988 H 0.39755 0.19594 0.66708
 H989 H 0.39753 0.26476 0.68311
 H990 H 0.36252 0.25830 0.71104
 H991 H 0.40300 0.21312 0.75086
 H992 H 0.43825 0.21978 0.72317
 C993 C 0.62142 0.27879 0.72809
 C994 C 0.61148 0.30210 0.71731
 C995 C 0.59268 0.29872 0.70209
 C996 C 0.58538 0.27219 0.69877
 C997 C 0.60876 0.25936 0.69128
 C998 C 0.62751 0.26280 0.70650
 C999 C 0.59919 0.26703 0.73979
 C1000 C 0.58042 0.26368 0.72453
 H1001 H 0.61756 0.31990 0.72238
 H1002 H 0.58288 0.31387 0.69497
 H1003 H 0.61043 0.24849 0.67520
 H1004 H 0.64512 0.25482 0.70342
 H1005 H 0.59778 0.26274 0.75866
 H1006 H 0.56322 0.25657 0.73054
 C1007 C 0.12676 0.76977 0.21978
 C1008 C 0.12074 0.74310 0.21621
 C1009 C 0.10186 0.73908 0.20124
 C1010 C 0.09039 0.76216 0.19122
 C1011 C 0.08419 0.77738 0.21338
 C1012 C 0.10312 0.78134 0.22825
 C1013 C 0.13074 0.77920 0.19426
 C1014 C 0.11184 0.77516 0.17934
 H1015 H 0.13135 0.72855 0.22352
 H1016 H 0.09703 0.72107 0.19572
 H1017 H 0.06629 0.78437 0.21712
 H1018 H 0.10140 0.79170 0.24464
 H1019 H 0.14738 0.78741 0.18811
 H1020 H 0.11263 0.77981 0.16053
 C1021 C 0.28431 0.12518 0.22013
 C1022 C 0.27258 0.10045 0.21713
 C1023 C 0.28772 0.08182 0.22146
 C1024 C 0.31339 0.08937 0.22842
 C1025 C 0.32185 0.10600 0.20803
 C1026 C 0.30661 0.12457 0.20365
 C1027 C 0.29475 0.12516 0.24553
 C1028 C 0.31001 0.10657 0.24984
 H1029 H 0.25393 0.09782 0.21192
 H1030 H 0.28196 0.06328 0.21993
 H1031 H 0.33915 0.10479 0.19904
 H1032 H 0.31109 0.13828 0.19070
 H1033 H 0.29101 0.13896 0.25877
 H1034 H 0.31939 0.10475 0.26673
 C1035 C 0.77363 0.62059 0.71924
 C1036 C 0.79686 0.62697 0.73259
 C1037 C 0.81220 0.60820 0.73539
 C1038 C 0.80314 0.58452 0.72454
 C1039 C 0.77805 0.58062 0.73582
 C1040 C 0.76272 0.59944 0.73317
 C1041 C 0.78210 0.60936 0.69550
 C1042 C 0.79743 0.59049 0.69820
 H1043 H 0.80089 0.64480 0.73931
 H1044 H 0.82937 0.61003 0.74446
 H1045 H 0.77229 0.56398 0.74406
 H1046 H 0.74414 0.59857 0.73925
 H1047 H 0.77559 0.61491 0.67811
 H1048 H 0.80329 0.57990 0.68295
 C1049 C 0.78281 0.37542 0.77258
 C1050 C 0.80649 0.37488 0.78684
 C1051 C 0.82116 0.39394 0.78267
 C1052 C 0.81088 0.41220 0.76476
 C1053 C 0.80575 0.39685 0.74231
 C1054 C 0.79102 0.37774 0.74641
 C1055 C 0.77126 0.39966 0.77878
 C1056 C 0.78587 0.41880 0.77472
 H1057 H 0.81229 0.36003 0.79784
 H1058 H 0.83923 0.39465 0.78998
 H1059 H 0.81379 0.40003 0.72489
 H1060 H 0.78635 0.36498 0.73247
 H1061 H 0.75309 0.40160 0.78583
 H1062 H 0.78015 0.43708 0.77830
 C1063 C 0.27237 -0.11686 0.27606
 C1064 C 0.27663 -0.10187 0.29882
 C1065 C 0.29170 -0.08288 0.29554
 C1066 C 0.30142 -0.08051 0.26977
 C1067 C 0.31275 -0.10498 0.26399
 C1068 C 0.29767 -0.12389 0.26725
 C1069 C 0.26325 -0.09850 0.25768
 C1070 C 0.27831 -0.07951 0.25451
 H1071 H 0.26786 -0.10533 0.31587
 H1072 H 0.29541 -0.07015 0.30978
 H1073 H 0.33118 -0.10722 0.25772
 H1074 H 0.30324 -0.14224 0.26374
 H1075 H 0.24571 -0.09908 0.24924
 H1076 H 0.27300 -0.06431 0.24373
 C1077 C 0.22068 -0.12291 0.73093
 C1078 C 0.21991 -0.11456 0.75723
 C1079 C 0.20513 -0.09549 0.76130
 C1080 C 0.19236 -0.08616 0.73868
 C1081 C 0.21283 -0.08137 0.72070
 C1082 C 0.22755 -0.10048 0.71665
 C1083 C 0.19407 -0.12763 0.72478
 C1084 C 0.17933 -0.10851 0.72885
 H1085 H 0.22850 -0.12393 0.77186
 H1086 H 0.20138 -0.08952 0.77939
 H1087 H 0.21561 -0.06423 0.71199
 H1088 H 0.24284 -0.09961 0.70448
 H1089 H 0.18723 -0.14471 0.71838
 H1090 H 0.16001 -0.10944 0.72595
 C1091 C 0.72580 0.37850 0.22678
 C1092 C 0.72129 0.39351 0.20426
 C1093 C 0.70641 0.41263 0.20797
 C1094 C 0.69713 0.41506 0.23393
 C1095 C 0.68570 0.39064 0.23960
 C1096 C 0.70061 0.37162 0.23588
 C1097 C 0.73532 0.39671 0.24520
 C1098 C 0.72050 0.41581 0.24883
 H1099 H 0.72966 0.38987 0.18703
 H1100 H 0.70240 0.42533 0.19389
 H1101 H 0.66734 0.38852 0.24608
 H1102 H 0.69499 0.35329 0.23918
 H1103 H 0.75300 0.39588 0.25334
 H1104 H 0.72624 0.43094 0.25961
 C1105 C 0.72526 0.62045 0.27154
 C1106 C 0.69895 0.62739 0.26675
 C1107 C 0.68411 0.60835 0.26299
 C1108 C 0.69672 0.58386 0.26430
 C1109 C 0.71787 0.58563 0.24629
 C1110 C 0.73263 0.60477 0.25001
 C1111 C 0.72407 0.60292 0.29261
 C1112 C 0.70930 0.58380 0.28883
 H1113 H 0.69257 0.64577 0.26618
 H1114 H 0.66505 0.61052 0.25921
 H1115 H 0.72240 0.57224 0.23293
 H1116 H 0.74880 0.60737 0.23940
 H1117 H 0.73441 0.60506 0.30892
 H1118 H 0.70723 0.56963 0.30191
 C1119 C 0.21625 0.12679 0.77701
 C1120 C 0.22817 0.10222 0.78037
 C1121 C 0.21307 0.08336 0.77673
 C1122 C 0.18723 0.09054 0.77004
 C1123 C 0.17904 0.10780 0.79017
 C1124 C 0.19424 0.12658 0.79387
 C1125 C 0.20535 0.12589 0.75181
 C1126 C 0.19014 0.10707 0.74818
 H1127 H 0.24693 0.09986 0.78531
 H1128 H 0.21897 0.06491 0.77858
 H1129 H 0.16187 0.10684 0.79944
 H1130 H 0.18987 0.14072 0.80652
 H1131 H 0.20877 0.13929 0.73819
 H1132 H 0.18049 0.10465 0.73150
 C1133 C 0.22341 0.27778 0.11726
 C1134 C 0.19961 0.28520 0.10544
 C1135 C 0.20247 0.30039 0.08662
 C1136 C 0.22900 0.30706 0.08131
 C1137 C 0.23880 0.31664 0.10517
 C1138 C 0.23586 0.30141 0.12389
 C1139 C 0.23852 0.26733 0.09654
 C1140 C 0.24133 0.28253 0.07778
 H1141 H 0.18211 0.27813 0.11055
 H1142 H 0.18730 0.30564 0.07566
 H1143 H 0.24731 0.33405 0.10716
 H1144 H 0.24187 0.30580 0.14183
 H1145 H 0.24518 0.24906 0.09586
 H1146 H 0.25023 0.27692 0.06136
 C1147 C 0.72413 0.78577 0.62944
 C1148 C 0.70771 0.80802 0.62964
 C1149 C 0.71178 0.82327 0.61112
 C1150 C 0.73182 0.81490 0.59373
 C1151 C 0.75382 0.81134 0.61012
 C1152 C 0.74981 0.79607 0.62866
 C1153 C 0.72038 0.77431 0.60475
 C1154 C 0.72439 0.78946 0.58618
 H1155 H 0.69511 0.81246 0.64386
 H1156 H 0.70283 0.84052 0.61037
 H1157 H 0.77087 0.82062 0.60784
 H1158 H 0.76347 0.79222 0.64195
 H1159 H 0.71490 0.75581 0.60209
 H1160 H 0.72232 0.78386 0.56768
 C1161 C 0.77252 0.77190 0.38492
 C1162 C 0.79506 0.77450 0.40061
 C1163 C 0.79189 0.78910 0.41995
 C1164 C 0.76644 0.80006 0.42194
 C1165 C 0.76225 0.81227 0.39772
 C1166 C 0.76541 0.79763 0.37847
 C1167 C 0.75275 0.76339 0.40230
 C1168 C 0.74964 0.77796 0.42167
 H1169 H 0.81191 0.76518 0.39712
 H1170 H 0.80603 0.79205 0.43299
 H1171 H 0.75700 0.83092 0.39590
 H1172 H 0.76287 0.80377 0.36026
 H1173 H 0.74307 0.74660 0.40061
 H1174 H 0.73776 0.77274 0.43616
 C1175 C 0.27928 0.28239 -0.12378
 C1176 C 0.30059 0.29945 -0.11938
 C1177 C 0.29704 0.31510 -0.10097
 C1178 C 0.27231 0.31242 -0.08833
 C1179 C 0.25386 0.31460 -0.10869
 C1180 C 0.25746 0.29893 -0.12709
 C1181 C 0.27506 0.27021 -0.09953
 C1182 C 0.27144 0.28584 -0.08109
 H1183 H 0.31744 0.29903 -0.12927
 H1184 H 0.31114 0.32750 -0.09602
 H1185 H 0.23931 0.32761 -0.10874
 H1186 H 0.24596 0.29855 -0.14275
 H1187 H 0.27518 0.25093 -0.09703
 H1188 H 0.26853 0.27981 -0.06286
 C1189 C 0.72900 0.22251 -0.12132
 C1190 C 0.74912 0.23049 -0.10415
 C1191 C 0.75248 0.21549 -0.08537
 C1192 C 0.73560 0.19349 -0.08536
 C1193 C 0.71018 0.20468 -0.08629
 C1194 C 0.70674 0.21973 -0.10511
 C1195 C 0.73578 0.19688 -0.12876
 C1196 C 0.73922 0.18178 -0.11004
 H1197 H 0.75861 0.24743 -0.10527
 H1198 H 0.76441 0.22039 -0.07086
 H1199 H 0.69631 0.20174 -0.07287
 H1200 H 0.68994 0.22933 -0.10776
 H1201 H 0.73777 0.19111 -0.14723
 H1202 H 0.74416 0.16311 -0.11256
 C1203 C 0.22977 0.72499 0.37808
 C1204 C 0.24853 0.73388 0.39626
 C1205 C 0.25190 0.71877 0.41497
 C1206 C 0.23646 0.69578 0.41386
 C1207 C 0.21046 0.70541 0.41190
 C1208 C 0.20699 0.72054 0.39317
 C1209 C 0.23849 0.69995 0.37058
 C1210 C 0.24197 0.68474 0.38921
 H1211 H 0.25728 0.75123 0.39565
 H1212 H 0.26304 0.72394 0.43002
 H1213 H 0.19621 0.70153 0.42467
 H1214 H 0.18980 0.72920 0.38991
 H1215 H 0.24171 0.69463 0.35214
 H1216 H 0.24814 0.66644 0.38664
 C1217 C 0.27359 0.72891 0.61700
 C1218 C 0.25488 0.73780 0.59886
 C1219 C 0.25181 0.72285 0.57982
 C1220 C 0.26753 0.70000 0.58060
 C1221 C 0.29339 0.70987 0.58297
 C1222 C 0.29654 0.72486 0.60200
 C1223 C 0.26509 0.70371 0.62393
 C1224 C 0.26194 0.68867 0.60500
 H1225 H 0.24601 0.75509 0.59976
 H1226 H 0.24078 0.72814 0.56479
 H1227 H 0.30782 0.70606 0.57034
 H1228 H 0.31365 0.73356 0.60565
 H1229 H 0.26170 0.69817 0.64224
 H1230 H 0.25587 0.67031 0.60717
 C1231 C 0.77108 0.21893 0.12355
 C1232 C 0.78147 0.19360 0.12681
 C1233 C 0.77761 0.17873 0.10787
 C1234 C 0.76384 0.19047 0.08707
 C1235 C 0.74047 0.19972 0.09909
 C1236 C 0.74430 0.21465 0.11805
 C1237 C 0.78204 0.22799 0.10004
 C1238 C 0.77829 0.21315 0.08105
 H1239 H 0.78987 0.18734 0.14312
 H1240 H 0.78263 0.15995 0.10840
 H1241 H 0.72246 0.19388 0.09433
 H1242 H 0.72960 0.22164 0.12890
 H1243 H 0.79189 0.24472 0.09845
 H1244 H 0.78494 0.21725 0.06323
 C1245 C 0.47550 0.37102 0.53321
 C1246 C 0.50108 0.37023 0.54361
 C1247 C 0.50487 0.35162 0.55885
 C1248 C 0.48275 0.33518 0.56227
 C1249 C 0.46276 0.35263 0.57056
 C1250 C 0.45890 0.37118 0.55535
 C1251 C 0.47178 0.34629 0.52170
 C1252 C 0.47554 0.32764 0.53683
 H1253 H 0.51481 0.38359 0.53992
 H1254 H 0.52179 0.34940 0.56825
 H1255 H 0.45380 0.35194 0.58781
 H1256 H 0.44648 0.38551 0.55988
 H1257 H 0.46653 0.34367 0.50319
 H1258 H 0.47351 0.30911 0.53120
 C1259 C -0.02161 0.86800 0.02591
 C1260 C -0.04380 0.85195 0.02964
 C1261 C -0.03995 0.83322 0.04470
 C1262 C -0.01420 0.83219 0.05497
 C1263 C 0.00202 0.83191 0.03244
 C1264 C -0.00176 0.85063 0.01741
 C1265 C -0.01401 0.87564 0.05117
 C1266 C -0.01016 0.85701 0.06629
 H1267 H -0.06092 0.85471 0.02073
 H1268 H -0.05379 0.81998 0.04840
 H1269 H 0.01391 0.81735 0.02729
 H1270 H 0.00738 0.85170 0.00027
 H1271 H -0.01173 0.89419 0.05667
 H1272 H -0.00458 0.85968 0.08470
 C1273 C 0.02037 0.62989 0.02445
 C1274 C 0.04356 0.64404 0.02953
 C1275 C 0.04049 0.66261 0.04515
 C1276 C 0.01444 0.66536 0.05461
 C1277 C -0.00062 0.66754 0.03158
 C1278 C 0.00235 0.64900 0.01597
 C1279 C 0.01104 0.62220 0.04914
 C1280 C 0.00796 0.64066 0.06483
 H1281 H 0.06075 0.64030 0.02094
 H1282 H 0.05510 0.67479 0.04949
 H1283 H -0.01120 0.68314 0.02681
 H1284 H -0.00612 0.64910 -0.00146
 H1285 H 0.00713 0.60375 0.05386
 H1286 H 0.00141 0.63795 0.08295
 C1287 C 0.53126 0.12426 0.53417
 C1288 C 0.50653 0.12457 0.54662
 C1289 C 0.50337 0.14329 0.56200
 C1290 C 0.52515 0.16038 0.56353
 C1291 C 0.54628 0.14367 0.57021
 C1292 C 0.54950 0.12494 0.55483
 C1293 C 0.53349 0.14888 0.52225
 C1294 C 0.53029 0.16767 0.53752
 H1295 H 0.49285 0.11090 0.54398
 H1296 H 0.48702 0.14542 0.57254
 H1297 H 0.55685 0.14502 0.58639
 H1298 H 0.56301 0.11133 0.55806
 H1299 H 0.53741 0.15134 0.50338
 H1300 H 0.53151 0.18615 0.53165
 C1301 C -0.02022 0.12987 0.47166
 C1302 C 0.00596 0.13897 0.47137
 C1303 C 0.00985 0.15753 0.45615
 C1304 C -0.01287 0.16570 0.44256
 C1305 C -0.02165 0.14258 0.43014
 C1306 C -0.02554 0.12393 0.44534
 C1307 C -0.03559 0.15206 0.47730
 C1308 C -0.03175 0.17072 0.46216
 H1309 H 0.02073 0.13038 0.48062
 H1310 H 0.02800 0.16380 0.45262
 H1311 H -0.02396 0.14078 0.41095
 H1312 H -0.03129 0.10640 0.43909
 H1313 H -0.04840 0.15304 0.49201
 H1314 H -0.04129 0.18762 0.46399
 C1315 C 0.47902 0.62823 0.97711
 C1316 C 0.50363 0.64057 0.98005
 C1317 C 0.50708 0.65955 0.96522
 C1318 C 0.48547 0.66479 0.94867
 C1319 C 0.48130 0.64078 0.93558
 C1320 C 0.47790 0.62176 0.95040
 C1321 C 0.46041 0.64831 0.98051
 C1322 C 0.46379 0.66735 0.96575
 H1323 H 0.51791 0.63412 0.99152
 H1324 H 0.52444 0.66836 0.96446
 H1325 H 0.48145 0.63883 0.91625
 H1326 H 0.47509 0.60370 0.94369
 H1327 H 0.44590 0.64769 0.99359
 H1328 H 0.45214 0.68299 0.96628
 C1329 C 0.52483 0.87459 0.96635
 C1330 C 0.49948 0.87460 0.95539
 C1331 C 0.49541 0.85611 0.93996
 C1332 C 0.51699 0.83895 0.93691
 C1333 C 0.53782 0.85565 0.92919
 C1334 C 0.54197 0.87413 0.94462
 C1335 C 0.52751 0.84979 0.97777
 C1336 C 0.52342 0.83125 0.96246
 H1337 H 0.48608 0.88836 0.95898
 H1338 H 0.47857 0.85428 0.93031
 H1339 H 0.54737 0.85455 0.91227
 H1340 H 0.55528 0.88780 0.94073
 H1341 H 0.53237 0.84703 0.99634
 H1342 H 0.52480 0.81268 0.96800
 C1343 C 0.02991 0.37596 0.46270
 C1344 C 0.00515 0.37614 0.45050
 C1345 C 0.00159 0.35742 0.43521
 C1346 C 0.02304 0.33992 0.43352
 C1347 C 0.04448 0.35619 0.42656
 C1348 C 0.04810 0.37489 0.44185
 C1349 C 0.03163 0.35134 0.47467
 C1350 C 0.02806 0.33259 0.45949
 H1351 H -0.00823 0.39010 0.45322
 H1352 H -0.01480 0.35558 0.42484
 H1353 H 0.05485 0.35472 0.41015
 H1354 H 0.06170 0.38837 0.43833
 H1355 H 0.03550 0.34885 0.49352
 H1356 H 0.02889 0.31411 0.46541
 C1357 C 0.37153 0.52385 0.47693
 C1358 C 0.35329 0.51582 0.49614
 C1359 C 0.33460 0.53128 0.49942
 C1360 C 0.33574 0.55371 0.48342
 C1361 C 0.36072 0.56461 0.48808
 C1362 C 0.37935 0.54907 0.48470
 C1363 C 0.35613 0.52772 0.45451
 C1364 C 0.33739 0.54318 0.45788
 H1365 H 0.35379 0.49871 0.50521
 H1366 H 0.31949 0.52666 0.51088
 H1367 H 0.36351 0.58306 0.49364
 H1368 H 0.39801 0.55426 0.48738
 H1369 H 0.35920 0.51847 0.43765
 H1370 H 0.32440 0.54675 0.44388
 C1371 C 0.87016 0.02290 -0.01764
 C1372 C 0.85564 0.01727 0.00517
 C1373 C 0.83637 0.03196 0.00881
 C1374 C 0.83322 0.05129 -0.01068
 C1375 C 0.85771 0.06423 -0.01151
 C1376 C 0.87693 0.04946 -0.01512
 C1377 C 0.85150 0.02210 -0.03781
 C1378 C 0.83223 0.03679 -0.03416
 H1379 H 0.85974 0.00285 0.01741
 H1380 H 0.82446 0.02910 0.02389
 H1381 H 0.85977 0.08345 -0.00920
 H1382 H 0.89532 0.05609 -0.01590
 H1383 H 0.85310 0.01061 -0.05346
 H1384 H 0.81738 0.03773 -0.04672
 C1385 C 0.62201 0.03200 0.02486
 C1386 C 0.62150 0.05448 0.04089
 C1387 C 0.64024 0.06972 0.03705
 C1388 C 0.65819 0.06109 0.01765
 C1389 C 0.66561 0.03578 0.02543
 C1390 C 0.64678 0.02064 0.02917
 C1391 C 0.62332 0.04194 -0.00071
 C1392 C 0.64213 0.05718 -0.00448
 H1393 H 0.60681 0.05915 0.05290
 H1394 H 0.64073 0.08719 0.04558
 H1395 H 0.68421 0.03026 0.02785
 H1396 H 0.64930 0.00222 0.03481
 H1397 H 0.61017 0.03791 -0.01448
 H1398 H 0.64478 0.06625 -0.02142
 C1399 C 0.13133 0.52836 0.52709
 C1400 C 0.15468 0.51648 0.51805
 C1401 C 0.17328 0.53210 0.51488
 C1402 C 0.16696 0.55836 0.52090
 C1403 C 0.14455 0.56387 0.50582
 C1404 C 0.12601 0.54824 0.50903
 C1405 C 0.13890 0.54153 0.55006
 C1406 C 0.15751 0.55711 0.54693
 H1407 H 0.15666 0.49735 0.51501
 H1408 H 0.19106 0.52618 0.50922
 H1409 H 0.14333 0.57896 0.49369
 H1410 H 0.10902 0.54995 0.49963
 H1411 H 0.13160 0.53769 0.56767
 H1412 H 0.16582 0.56572 0.56220
 C1413 C 0.11954 0.46985 -0.02263
 C1414 C 0.11588 0.44400 -0.03159
 C1415 C 0.13516 0.42942 -0.02774
 C1416 C 0.15659 0.44194 -0.01541
 C1417 C 0.16209 0.46385 -0.03106
 C1418 C 0.14281 0.47838 -0.03480
 C1419 C 0.12607 0.46699 0.00389
 C1420 C 0.14531 0.45237 0.00771
 H1421 H 0.09922 0.43740 -0.03928
 H1422 H 0.13468 0.41044 -0.03207
 H1423 H 0.17978 0.46763 -0.03855
 H1424 H 0.14401 0.49454 -0.04550
 H1425 H 0.11558 0.47453 0.01853
 H1426 H 0.15050 0.44734 0.02567
 C1427 C 0.62949 0.96983 0.46972
 C1428 C 0.63441 0.95291 0.44846
 C1429 C 0.65327 0.93772 0.45186
 C1430 C 0.66568 0.94063 0.47643
 C1431 C 0.67252 0.96737 0.47737
 C1432 C 0.65366 0.98257 0.47392
 C1433 C 0.62628 0.95322 0.49128
 C1434 C 0.64508 0.93800 0.49475
 H1435 H 0.62485 0.95347 0.43161
 H1436 H 0.65922 0.92603 0.43752
 H1437 H 0.69078 0.97381 0.48008
 H1438 H 0.65584 1.00191 0.47378
 H1439 H 0.61043 0.95326 0.50275
 H1440 H 0.64520 0.92503 0.50918
 C1441 C 0.87063 0.97816 0.52347
 C1442 C 0.85352 0.98556 0.50319
 C1443 C 0.83493 0.97004 0.49963
 C1444 C 0.83509 0.94818 0.51647
 C1445 C 0.86025 0.93706 0.51327
 C1446 C 0.87874 0.95266 0.51688
 C1447 C 0.85403 0.97509 0.54531
 C1448 C 0.83543 0.95959 0.54166
 H1449 H 0.85480 1.00221 0.49337
 H1450 H 0.82059 0.97423 0.48723
 H1451 H 0.86325 0.91844 0.50839
 H1452 H 0.89749 0.94734 0.51508
 H1453 H 0.85627 0.98486 0.56198
 H1454 H 0.82175 0.95646 0.55523
 C1455 C 0.37142 0.47336 0.02285
 C1456 C 0.37515 0.44735 0.03107
 C1457 C 0.35595 0.43279 0.02684
 C1458 C 0.33447 0.44547 0.01488
 C1459 C 0.32888 0.46706 0.03113
 C1460 C 0.34812 0.48159 0.03527
 C1461 C 0.36489 0.47099 -0.00374
 C1462 C 0.34570 0.45637 -0.00796
 H1463 H 0.39184 0.44061 0.03855
 H1464 H 0.35654 0.41375 0.03064
 H1465 H 0.31116 0.47067 0.03866
 H1466 H 0.34684 0.49758 0.04632
 H1467 H 0.37537 0.47881 -0.01817
 H1468 H 0.34051 0.45164 -0.02605
 C1469 C 0.53287 0.47286 0.37754
 C1470 C 0.52173 0.46758 0.35301
 C1471 C 0.53685 0.47172 0.33425
 C1472 C 0.56193 0.48084 0.34148
 C1473 C 0.55697 0.50308 0.35725
 C1474 C 0.54174 0.49890 0.37598
 C1475 C 0.55617 0.45790 0.37810
 C1476 C 0.57137 0.46215 0.35943
 H1477 H 0.50345 0.46105 0.35060
 H1478 H 0.53146 0.46874 0.31583
 H1479 H 0.56544 0.52040 0.35460
 H1480 H 0.53710 0.51270 0.38895
 H1481 H 0.56130 0.44622 0.39265
 H1482 H 0.58924 0.45427 0.35877
 C1483 C 0.02715 -0.02142 0.87400
 C1484 C 0.01960 -0.03470 0.85116
 C1485 C 0.03429 -0.03058 0.83207
 C1486 C 0.05536 -0.01349 0.83732
 C1487 C 0.04343 0.00931 0.84778
 C1488 C 0.02866 0.00511 0.86682
 C1489 C 0.05353 -0.02874 0.87809
 C1490 C 0.06825 -0.02454 0.85902
 H1491 H 0.00394 -0.04631 0.85008
 H1492 H 0.03112 -0.03867 0.81467
 H1493 H 0.04767 0.02745 0.84236
 H1494 H 0.02029 0.01960 0.87686
 H1495 H 0.06031 -0.03580 0.89482
 H1496 H 0.08750 -0.02796 0.85970
 C1497 C 0.03125 0.02327 0.62467
 C1498 C 0.03683 -0.00339 0.62867
 C1499 C 0.05167 -0.00758 0.64756
 C1500 C 0.05956 0.01533 0.66101
 C1501 C 0.07102 0.03081 0.64121
 C1502 C 0.05624 0.03506 0.62236
 C1503 C 0.02116 0.03226 0.64867
 C1504 C 0.03592 0.02817 0.66758
 H1505 H 0.03061 -0.01766 0.61697
 H1506 H 0.05830 -0.02544 0.65138
 H1507 H 0.08965 0.03676 0.64124
 H1508 H 0.06250 0.04465 0.60669
 H1509 H 0.00384 0.04114 0.65062
 H1510 H 0.03115 0.03353 0.68568
 C1511 C 0.52433 0.52169 0.13303
 C1512 C 0.51565 0.50199 0.15024
 C1513 C 0.53056 0.49833 0.16912
 C1514 C 0.55316 0.51448 0.16915
 C1515 C 0.56494 0.51041 0.14454
 C1516 C 0.54995 0.51416 0.12574
 C1517 C 0.52772 0.54380 0.14913
 C1518 C 0.54264 0.54005 0.16802
 H1519 H 0.49846 0.49287 0.14894
 H1520 H 0.52533 0.48653 0.18359
 H1521 H 0.58358 0.50492 0.14212
 H1522 H 0.55578 0.51187 0.10731
 H1523 H 0.51861 0.56077 0.14630
 H1524 H 0.54598 0.55383 0.18136
 C1525 C 0.46865 -0.03137 0.12770
 C1526 C 0.48163 -0.03267 0.15185
 C1527 C 0.46694 -0.02908 0.17108
 C1528 C 0.44042 -0.02449 0.16468
 C1529 C 0.44115 -0.00336 0.14702
 C1530 C 0.45593 -0.00692 0.12784
 C1531 C 0.44802 -0.04969 0.12966
 C1532 C 0.43322 -0.04608 0.14883
 H1533 H 0.50077 -0.03630 0.15366
 H1534 H 0.47357 -0.02965 0.18931
 H1535 H 0.43052 0.01286 0.14915
 H1536 H 0.45798 0.00628 0.11377
 H1537 H 0.44433 -0.06355 0.11654
 H1538 H 0.41703 -0.05669 0.15101
 C1539 C 0.96887 0.47315 0.62039
 C1540 C 0.98034 0.46966 0.64506
 C1541 C 0.96498 0.47363 0.66368
 C1542 C 0.93936 0.48075 0.65619
 C1543 C 0.94280 0.50255 0.63965
 C1544 C 0.95828 0.49859 0.62108
 C1545 C 0.94665 0.45662 0.62039
 C1546 C 0.93119 0.46068 0.63895
 H1547 H 0.99899 0.46441 0.64765
 H1548 H 0.97055 0.47178 0.68217
 H1549 H 0.93324 0.51940 0.64180
 H1550 H 0.96204 0.51210 0.60766
 H1551 H 0.94240 0.44389 0.60634
 H1552 H 0.91391 0.45164 0.63987
 C1553 C 0.97281 0.53027 0.86447
 C1554 C 0.96238 0.55369 0.85446
 C1555 C 0.94753 0.55049 0.83541
 C1556 C 0.94416 0.52401 0.82801
 C1557 C 0.97018 0.51514 0.82371
 C1558 C 0.98508 0.51833 0.84277
 C1559 C 0.95082 0.51455 0.86993
 C1560 C 0.93591 0.51128 0.85096
 H1561 H 0.96756 0.57142 0.86062
 H1562 H 0.94081 0.56571 0.82548
 H1563 H 0.97662 0.50784 0.80683
 H1564 H 1.00406 0.51362 0.84206
 H1565 H 0.94728 0.50662 0.88730
 H1566 H 0.91961 0.50058 0.85217
 C1567 C 0.46966 0.02887 0.37586
 C1568 C 0.44810 0.04622 0.37529
 C1569 C 0.43264 0.04211 0.35687
 C1570 C 0.44018 0.02115 0.34031
 C1571 C 0.46612 0.02704 0.33259
 C1572 C 0.48146 0.03109 0.35108
 C1573 C 0.45811 0.00385 0.37603
 C1574 C 0.44265 -0.00017 0.35760
 H1575 H 0.44432 0.05969 0.38882
 H1576 H 0.41578 0.05184 0.35556
 H1577 H 0.47192 0.02806 0.31405
 H1578 H 0.50031 0.03557 0.34831
 H1579 H 0.46123 -0.00932 0.38991
 H1580 H 0.43246 -0.01670 0.35604
   
