data_POSCAR
  _audit_creation_date              2014-09-24
  _audit_creation_method            'ToBaCCo'
  _symmetry_space_group_name_H-M    'P1'
  _symmetry_Int_Tables_number       1
  _symmetry_cell_setting            triclinic
  loop_
  _symmetry_equiv_pos_as_xyz
 x,y,z
_cell_length_a 44.7421
_cell_length_b 44.7462
_cell_length_c 44.8745
_cell_angle_alpha 90.537100
_cell_angle_beta 91.118700
_cell_angle_gamma 88.984800
loop_
  _atom_site_label
  _atom_site_type_symbol
  _atom_site_fract_x
  _atom_site_fract_y
  _atom_site_fract_z
C1 C 0.07419 -0.00332 0.20276
 H2 H 0.06190 -0.00460 0.22318
 C3 C 0.05873 0.00071 0.17564
 H4 H 0.03454 0.00203 0.17520
 C5 C 0.12051 -0.00226 0.17811
 H6 H 0.14469 -0.00296 0.17937
 C7 C 0.10595 0.00147 0.15053
 H8 H 0.11898 0.00339 0.13059
 N9 N 0.10458 -0.00513 0.20346
 C10 C 0.11255 0.00653 0.29814
 H11 H 0.13102 0.02155 0.29628
 C12 C 0.09873 0.00393 0.32555
 H13 H 0.10615 0.01764 0.34417
 C14 C 0.08159 -0.03075 0.27686
 H15 H 0.07576 -0.04496 0.25807
 C16 C 0.06670 -0.03363 0.30385
 H17 H 0.04893 -0.04959 0.30565
 Zn18 Zn 0.12743 -0.00897 0.23950
 N19 N 0.10381 -0.01057 0.27436
 C20 C 0.13371 0.05145 0.24235
 N21 N 0.15034 0.02572 0.24205
 C22 C 0.18071 0.02599 0.24292
 C23 C 0.19551 0.05329 0.24422
 C24 C 0.14751 0.07904 0.24395
 C25 C 0.16432 -0.05334 0.26511
 C26 C 0.17351 -0.08312 0.26914
 C27 C 0.15802 -0.09370 0.21836
 C28 C 0.14869 -0.06394 0.21541
 N29 N 0.15086 -0.04474 0.23902
 H30 H 0.10957 0.05041 0.24142
 H31 H 0.19335 0.00517 0.24238
 H32 H 0.21970 0.05361 0.24465
 H33 H 0.13390 0.09928 0.24409
 H34 H 0.16525 -0.03783 0.28372
 H35 H 0.18136 -0.09043 0.29092
 H36 H 0.15367 -0.10935 0.20027
 H37 H 0.13728 -0.05714 0.19513
 C38 C 0.07555 -0.01643 0.32862
 C39 C 0.07464 0.00292 0.14919
 C40 C 0.16910 -0.10379 0.24591
 C41 C 0.17879 0.08008 0.24482
 C42 C 0.42975 0.00636 0.78052
 H43 H 0.44226 0.00789 0.76025
 C44 C 0.44460 0.00797 0.80821
 H45 H 0.46864 0.01030 0.80928
 C46 C 0.38316 0.00224 0.80434
 H47 H 0.35913 0.00017 0.80254
 C48 C 0.39706 0.00358 0.83233
 H49 H 0.38362 0.00245 0.85207
 N50 N 0.39957 0.00314 0.77919
 C51 C 0.38995 0.01661 0.68502
 H52 H 0.37069 0.03137 0.68687
 C53 C 0.40426 0.01375 0.65776
 H54 H 0.39645 0.02697 0.63899
 C55 C 0.42267 -0.01977 0.70665
 H56 H 0.42901 -0.03350 0.72554
 C57 C 0.43801 -0.02286 0.67996
 H58 H 0.45666 -0.03850 0.67841
 Zn59 Zn 0.37649 0.00099 0.74364
 N60 N 0.39942 0.00007 0.70881
 C61 C 0.36713 0.06148 0.74251
 N62 N 0.35193 0.03553 0.74393
 C63 C 0.32177 0.03542 0.74727
 C64 C 0.30566 0.06245 0.74875
 C65 C 0.35197 0.08885 0.74380
 C66 C 0.36442 -0.05720 0.76135
 C67 C 0.35070 -0.08488 0.75994
 C68 C 0.31711 -0.06563 0.72158
 C69 C 0.33187 -0.03841 0.72331
 N70 N 0.35469 -0.03457 0.74338
 H71 H 0.39118 0.06080 0.74044
 H72 H 0.31028 0.01454 0.74933
 H73 H 0.28166 0.06240 0.75140
 H74 H 0.36448 0.10926 0.74250
 H75 H 0.38336 -0.05407 0.77627
 H76 H 0.35868 -0.10266 0.77439
 H77 H 0.29873 -0.06853 0.70582
 H78 H 0.32532 -0.02040 0.70851
 C79 C 0.42857 -0.00625 0.65516
 C80 C 0.42820 0.00631 0.83440
 C81 C 0.32674 -0.08919 0.73985
 C82 C 0.32083 0.08945 0.74695
 C83 C 0.89953 0.52455 0.31328
 H84 H 0.88871 0.54497 0.30579
 C85 C 0.90825 0.52208 0.34322
 H86 H 0.90341 0.54031 0.35854
 C87 C 0.91652 0.47513 0.30341
 H88 H 0.91915 0.45655 0.28824
 C89 C 0.92550 0.47169 0.33325
 H90 H 0.93424 0.45025 0.34075
 N91 N 0.90192 0.50057 0.29446
 C92 C 0.88525 0.50161 0.19743
 H93 H 0.86111 0.50058 0.19774
 C94 C 0.89987 0.50212 0.17027
 H95 H 0.88686 0.50148 0.14969
 C96 C 0.93144 0.50354 0.22413
 H97 H 0.94353 0.50402 0.24523
 C98 C 0.94703 0.50393 0.19735
 H99 H 0.97120 0.50477 0.19781
 Zn100 Zn 0.87802 0.50131 0.25850
 N101 N 0.90107 0.50250 0.22362
 C102 C 0.85769 0.55930 0.24185
 N103 N 0.85270 0.53608 0.26036
 C104 C 0.83176 0.53836 0.28197
 C105 C 0.81440 0.56446 0.28508
 C106 C 0.84138 0.58604 0.24471
 C107 C 0.86957 0.43923 0.25218
 C108 C 0.85395 0.41245 0.25116
 C109 C 0.80785 0.44094 0.25462
 C110 C 0.82435 0.46715 0.25598
 N111 N 0.85478 0.46589 0.25562
 H112 H 0.87495 0.55749 0.22540
 H113 H 0.82891 0.52007 0.29719
 H114 H 0.79782 0.56607 0.30230
 H115 H 0.84584 0.60440 0.23000
 H116 H 0.89351 0.43869 0.24972
 H117 H 0.86610 0.39146 0.24873
 H118 H 0.78368 0.44217 0.25514
 H119 H 0.81264 0.48838 0.25701
 C120 C 0.93118 0.50331 0.17009
 C121 C 0.91984 0.49484 0.35367
 C122 C 0.82269 0.41327 0.25273
 C123 C 0.81950 0.58876 0.26665
 C124 C 0.58219 0.52564 0.71681
 H125 H 0.57781 0.54026 0.73562
 C126 C 0.56486 0.52834 0.69065
 H127 H 0.54687 0.54481 0.68935
 C128 C 0.61145 0.48682 0.69507
 H129 H 0.63001 0.47111 0.69663
 C130 C 0.59511 0.48917 0.66839
 H131 H 0.60088 0.47472 0.64982
 N132 N 0.60467 0.50479 0.71869
 C133 C 0.62254 0.50220 0.81454
 H134 H 0.64653 0.50476 0.81419
 C135 C 0.60813 0.50004 0.84168
 H136 H 0.62112 0.50115 0.86225
 C137 C 0.57655 0.49716 0.78794
 H138 H 0.56447 0.49537 0.76694
 C139 C 0.56126 0.49468 0.81464
 H140 H 0.53731 0.49155 0.81421
 Zn141 Zn 0.62927 0.50296 0.75346
 N142 N 0.60663 0.50117 0.78842
 C143 C 0.64481 0.56098 0.77272
 N144 N 0.65244 0.53803 0.75407
 C145 C 0.67427 0.54105 0.73368
 C146 C 0.68998 0.56770 0.73209
 C147 C 0.65956 0.58818 0.77148
 C148 C 0.63708 0.44162 0.75105
 C149 C 0.65176 0.41386 0.75155
 C150 C 0.69875 0.43926 0.75724
 C151 C 0.68315 0.46667 0.75643
 N152 N 0.65284 0.46731 0.75310
 H153 H 0.62667 0.55855 0.78801
 H154 H 0.67923 0.52286 0.71842
 H155 H 0.70741 0.56991 0.71591
 H156 H 0.65312 0.60627 0.78633
 H157 H 0.61295 0.44278 0.74901
 H158 H 0.63879 0.39371 0.74971
 H159 H 0.72286 0.43883 0.75990
 H160 H 0.69520 0.48727 0.75896
 C161 C 0.57708 0.49627 0.84180
 C162 C 0.57150 0.51018 0.66603
 C163 C 0.68301 0.41255 0.75466
 C164 C 0.68242 0.59167 0.75089
 C165 C 0.27930 0.07769 0.99082
 H166 H 0.25832 0.06641 0.99292
 C167 C 0.30588 0.06086 0.98890
 H168 H 0.30534 0.03671 0.99002
 C169 C 0.30599 0.12260 0.98603
 H170 H 0.30578 0.14672 0.98455
 C171 C 0.33302 0.10672 0.98442
 H172 H 0.35358 0.11876 0.98191
 N173 N 0.27993 0.10808 0.99016
 C174 C 0.18614 0.11856 0.97612
 H175 H 0.18862 0.13608 0.96002
 C176 C 0.15857 0.10472 0.97839
 H177 H 0.14032 0.11117 0.96346
 C178 C 0.20624 0.08977 1.01605
 H179 H 0.22463 0.08478 1.03130
 C180 C 0.17920 0.07486 1.01860
 H181 H 0.17694 0.05789 1.03541
 Zn182 Zn 0.24521 0.13299 0.99325
 N183 N 0.20939 0.11081 0.99468
 C184 C 0.24385 0.14004 0.93283
 N185 N 0.24431 0.15621 0.95862
 C186 C 0.24585 0.18652 0.95864
 C187 C 0.24706 0.20173 0.93158
 C188 C 0.24478 0.15428 0.90545
 C189 C 0.22078 0.16702 1.03974
 C190 C 0.21868 0.17523 1.06981
 C191 C 0.27149 0.16471 1.07602
 C192 C 0.27253 0.15620 1.04607
 N193 N 0.24712 0.15627 1.02889
 H194 H 0.24300 0.11591 0.93365
 H195 H 0.24659 0.19876 0.97953
 H196 H 0.24857 0.22585 0.93152
 H197 H 0.24453 0.14100 0.88517
 H198 H 0.20076 0.16638 1.02585
 H199 H 0.19699 0.18069 1.07895
 H200 H 0.29132 0.16191 1.09005
 H201 H 0.29315 0.14712 1.03757
 C202 C 0.15499 0.08255 0.99984
 C203 C 0.33311 0.07545 0.98625
 C204 C 0.24405 0.17273 1.08844
 C205 C 0.24658 0.18550 0.90471
 C206 C 0.71956 0.41384 0.97516
 H207 H 0.73645 0.41563 0.95846
 C208 C 0.69281 0.43039 0.97206
 H209 H 0.68923 0.44479 0.95301
 C210 C 0.70334 0.39347 1.02042
 H211 H 0.70750 0.37986 1.03976
 C212 C 0.67604 0.40894 1.01775
 H213 H 0.65956 0.40670 1.03490
 N214 N 0.72413 0.39521 0.99874
 C215 C 0.82092 0.37790 0.99595
 H216 H 0.82114 0.35452 0.98957
 C217 C 0.84787 0.39282 1.00034
 H218 H 0.86884 0.38104 0.99667
 C219 C 0.79324 0.42152 1.00935
 H220 H 0.77192 0.43234 1.01355
 C221 C 0.81964 0.43731 1.01375
 H222 H 0.81863 0.46053 1.02071
 Zn223 Zn 0.75905 0.36946 0.99995
 N224 N 0.79436 0.39228 1.00087
 C225 C 0.76547 0.35968 0.93925
 N226 N 0.75879 0.34556 0.96492
 C227 C 0.75118 0.31624 0.96482
 C228 C 0.74898 0.30031 0.93789
 C229 C 0.76357 0.34466 0.91197
 C230 C 0.78180 0.35065 1.05553
 C231 C 0.77902 0.34175 1.08496
 C232 C 0.73133 0.32045 1.07187
 C233 C 0.73528 0.32923 1.04237
 N234 N 0.75924 0.34596 1.03529
 H235 H 0.77220 0.38275 0.93995
 H236 H 0.74632 0.30527 0.98545
 H237 H 0.74246 0.27713 0.93784
 H238 H 0.76865 0.35645 0.89178
 H239 H 0.80077 0.36380 1.04986
 H240 H 0.79572 0.34842 1.10142
 H241 H 0.71050 0.31043 1.07808
 H242 H 0.71751 0.32583 1.02607
 C243 C 0.84726 0.42283 1.00968
 C244 C 0.67039 0.42726 0.99303
 C245 C 0.75273 0.32828 1.09364
 C246 C 0.75483 0.31468 0.91111
 C247 C 0.22325 0.92359 0.50391
 H248 H 0.24353 0.93551 0.50888
 C249 C 0.19595 0.93927 0.50234
 H250 H 0.19536 0.96330 0.50539
 C251 C 0.19857 0.87780 0.49507
 H252 H 0.19982 0.85379 0.49223
 C253 C 0.17087 0.89249 0.49382
 H254 H 0.15085 0.87970 0.48986
 N255 N 0.22409 0.89344 0.49957
 C256 C 0.32033 0.88053 0.50990
 H257 H 0.31976 0.85965 0.52169
 C258 C 0.34736 0.89544 0.50798
 H259 H 0.36728 0.88613 0.51868
 C260 C 0.29547 0.91794 0.48125
 H261 H 0.27549 0.92617 0.46994
 C262 C 0.32187 0.93404 0.47956
 H263 H 0.32197 0.95495 0.46761
 Zn264 Zn 0.25935 0.86942 0.49958
 N265 N 0.29494 0.89201 0.49689
 C266 C 0.25809 0.85916 0.43885
 N267 N 0.25600 0.84465 0.46520
 C268 C 0.24940 0.81507 0.46600
 C269 C 0.24516 0.79890 0.43943
 C270 C 0.25396 0.84392 0.41191
 C271 C 0.24621 0.86048 0.55936
 C272 C 0.24745 0.84705 0.58731
 C273 C 0.27806 0.80736 0.56655
 C274 C 0.27656 0.82174 0.53900
 N275 N 0.26055 0.84771 0.53584
 H276 H 0.26257 0.88279 0.43876
 H277 H 0.24661 0.80416 0.48710
 H278 H 0.23991 0.77539 0.44015
 H279 H 0.25579 0.85595 0.39123
 H280 H 0.23415 0.88143 0.55660
 H281 H 0.23591 0.85755 0.60574
 H282 H 0.29072 0.78664 0.56890
 H283 H 0.28850 0.81238 0.52028
 C284 C 0.34814 0.92267 0.49287
 C285 C 0.16949 0.92365 0.49717
 C286 C 0.26356 0.82015 0.59103
 C287 C 0.24736 0.81339 0.41207
 C288 C 0.77929 0.58114 0.48615
 H289 H 0.76039 0.57642 0.47158
 C290 C 0.80557 0.56405 0.48403
 H291 H 0.80699 0.54589 0.46798
 C292 C 0.80101 0.61109 0.52446
 H293 H 0.79934 0.62982 0.53973
 C294 C 0.82782 0.59503 0.52263
 H295 H 0.84649 0.60115 0.53699
 N296 N 0.77736 0.60373 0.50657
 C297 C 0.68169 0.61820 0.50857
 H298 H 0.68116 0.64218 0.50562
 C299 C 0.65514 0.60272 0.51041
 H300 H 0.63406 0.61489 0.50863
 C301 C 0.71005 0.57330 0.51481
 H302 H 0.73153 0.56211 0.51724
 C303 C 0.68394 0.55691 0.51693
 H304 H 0.68526 0.53299 0.52029
 Zn305 Zn 0.74225 0.62712 0.50809
 N306 N 0.70837 0.60330 0.51017
 C307 C 0.72228 0.64230 0.45017
 N308 N 0.74087 0.65014 0.47319
 C309 C 0.76113 0.67218 0.47037
 C310 C 0.76266 0.68794 0.44379
 C311 C 0.72355 0.65704 0.42298
 C312 C 0.74549 0.63486 0.56871
 C313 C 0.74627 0.64958 0.59615
 C314 C 0.73951 0.69654 0.57045
 C315 C 0.73906 0.68088 0.54335
 N316 N 0.74253 0.65062 0.54304
 H317 H 0.70716 0.62395 0.45253
 H318 H 0.77640 0.67719 0.48864
 H319 H 0.77882 0.70548 0.44164
 H320 H 0.70889 0.65040 0.40471
 H321 H 0.74761 0.61075 0.56773
 H322 H 0.74903 0.63668 0.61634
 H323 H 0.73695 0.72064 0.57070
 H324 H 0.73573 0.69287 0.52274
 C325 C 0.65622 0.57164 0.51442
 C326 C 0.83014 0.57119 0.50223
 C327 C 0.74345 0.68083 0.59709
 C328 C 0.74406 0.68007 0.41971
 C329 C -0.00203 0.22471 0.06646
 H330 H 0.00127 0.24562 0.05527
 C331 C 0.00076 0.19769 0.05061
 H332 H 0.00602 0.19788 0.02717
 C333 C -0.01293 0.19844 0.11043
 H334 H -0.01865 0.19882 0.13369
 C335 C -0.01025 0.17109 0.09555
 H336 H -0.01382 0.15063 0.10755
 N337 N -0.00828 0.22453 0.09602
 C338 C -0.02949 0.31732 0.10894
 H339 H -0.04687 0.31140 0.12402
 C340 C -0.02634 0.34733 0.10162
 H341 H -0.04130 0.36397 0.11119
 C342 C 0.01306 0.30377 0.08096
 H343 H 0.02929 0.28700 0.07413
 C344 C 0.01730 0.33378 0.07349
 H345 H 0.03671 0.33979 0.06095
 Zn346 Zn -0.00878 0.25903 0.12097
 N347 N -0.00903 0.29636 0.09992
 C348 C 0.05012 0.27364 0.14073
 N349 N 0.02636 0.25594 0.14605
 C350 C 0.02870 0.23363 0.16649
 C351 C 0.05586 0.22780 0.18152
 C352 C 0.07780 0.26805 0.15463
 C353 C -0.07021 0.25294 0.12792
 C354 C -0.09754 0.25303 0.14247
 C355 C -0.07108 0.26277 0.18889
 C356 C -0.04420 0.26255 0.17345
 N357 N -0.04428 0.25772 0.14348
 H358 H 0.04815 0.29164 0.12509
 H359 H 0.00966 0.21998 0.17088
 H360 H 0.05757 0.20983 0.19750
 H361 H 0.09656 0.28197 0.14960
 H362 H -0.06963 0.24940 0.10405
 H363 H -0.11795 0.24939 0.12971
 H364 H -0.07093 0.26686 0.21271
 H365 H -0.02342 0.26679 0.18531
 C366 C -0.00191 0.35592 0.08500
 C367 C -0.00295 0.17055 0.06533
 C368 C -0.09807 0.25813 0.17335
 C369 C 0.08094 0.24450 0.17487
 C370 C 0.00036 0.77571 0.42664
 H371 H -0.00336 0.75541 0.43873
 C372 C 0.00329 0.80279 0.44229
 H373 H 0.00144 0.80328 0.46631
 C374 C 0.00804 0.80021 0.38093
 H375 H 0.01022 0.79897 0.35698
 C376 C 0.01063 0.82769 0.39557
 H377 H 0.01470 0.84753 0.38274
 N378 N 0.00192 0.77508 0.39636
 C379 C 0.00966 0.68025 0.38916
 H380 H 0.02605 0.68121 0.37186
 C381 C 0.00524 0.65325 0.40365
 H382 H 0.01890 0.63388 0.39801
 C383 C -0.02897 0.70375 0.41673
 H384 H -0.04295 0.72325 0.42094
 C385 C -0.03360 0.67735 0.43229
 H386 H -0.05062 0.67671 0.44909
 Zn387 Zn -0.00342 0.73989 0.37271
 N388 N -0.00723 0.70491 0.39599
 C389 C 0.05716 0.73435 0.36504
 N390 N 0.03087 0.73609 0.34939
 C391 C 0.03007 0.73703 0.31912
 C392 C 0.05678 0.73654 0.30339
 C393 C 0.08424 0.73360 0.35026
 C394 C -0.05384 0.77029 0.34703
 C395 C -0.08398 0.77148 0.33857
 C396 C -0.08298 0.71782 0.33266
 C397 C -0.05262 0.71764 0.34078
 N398 N -0.03912 0.74349 0.34925
 H399 H 0.05699 0.73400 0.38914
 H400 H 0.00883 0.73880 0.30729
 H401 H 0.05620 0.73783 0.27931
 H402 H 0.10495 0.73259 0.36311
 H403 H -0.04322 0.79060 0.35420
 H404 H -0.09607 0.79266 0.33954
 H405 H -0.09426 0.69683 0.32901
 H406 H -0.04066 0.69655 0.34313
 C407 C -0.01661 0.65172 0.42554
 C408 C 0.00777 0.82920 0.42662
 C409 C -0.09910 0.74490 0.33292
 C410 C 0.08415 0.73500 0.31906
 C411 C 0.52776 0.28424 0.91637
 H412 H 0.54153 0.26466 0.92100
 C413 C 0.53216 0.31056 0.93276
 H414 H 0.54898 0.31120 0.95042
 C415 C 0.48951 0.30775 0.88718
 H416 H 0.47341 0.30673 0.86895
 C417 C 0.49363 0.33462 0.90253
 H418 H 0.48004 0.35397 0.89649
 N419 N 0.50635 0.28320 0.89442
 C420 C 0.50254 0.18713 0.87923
 H421 H 0.50547 0.18686 0.85535
 C422 C 0.49985 0.16032 0.89447
 H423 H 0.50099 0.13939 0.88222
 C424 C 0.49688 0.21493 0.92408
 H425 H 0.49494 0.23629 0.93536
 C426 C 0.49392 0.18860 0.94019
 H427 H 0.49034 0.18968 0.96397
 Zn428 Zn 0.50310 0.24837 0.87070
 N429 N 0.50140 0.21368 0.89418
 C430 C 0.56121 0.22929 0.85479
 N431 N 0.53760 0.24731 0.84685
 C432 C 0.53990 0.26778 0.82481
 C433 C 0.56654 0.27026 0.80934
 C434 C 0.58846 0.23150 0.84032
 C435 C 0.44139 0.25310 0.86375
 C436 C 0.41346 0.25284 0.84929
 C437 C 0.43845 0.24434 0.80265
 C438 C 0.46596 0.24494 0.81797
 N439 N 0.46692 0.24949 0.84799
 H440 H 0.55931 0.21400 0.87312
 H441 H 0.52122 0.28267 0.81971
 H442 H 0.56821 0.28663 0.79186
 H443 H 0.60715 0.21728 0.84712
 H444 H 0.44279 0.25608 0.88768
 H445 H 0.39340 0.25579 0.86216
 H446 H 0.43778 0.24058 0.77878
 H447 H 0.48640 0.24114 0.80597
 C448 C 0.49547 0.16099 0.92537
 C449 C 0.51523 0.33613 0.92561
 C450 C 0.41190 0.24835 0.81833
 C451 C 0.59128 0.25237 0.81742
 C452 C 0.52617 0.70988 0.58747
 H453 H 0.54153 0.72746 0.58247
 C454 C 0.52768 0.68272 0.57190
 H455 H 0.54394 0.67943 0.55457
 C456 C 0.48661 0.69223 0.61659
 H457 H 0.47106 0.69579 0.63444
 C458 C 0.48777 0.66459 0.60202
 H459 H 0.47259 0.64727 0.60833
 N460 N 0.50544 0.71431 0.60892
 C461 C 0.50530 0.81112 0.62006
 H462 H 0.50683 0.81182 0.64415
 C463 C 0.50478 0.83763 0.60402
 H464 H 0.50598 0.85874 0.61592
 C465 C 0.50153 0.78255 0.57541
 H466 H 0.49969 0.76107 0.56443
 C467 C 0.50077 0.80864 0.55845
 H468 H 0.49879 0.80720 0.53440
 Zn469 Zn 0.50492 0.75063 0.63072
 N470 N 0.50418 0.78430 0.60565
 C471 C 0.56297 0.76849 0.64742
 N472 N 0.54001 0.75070 0.65498
 C473 C 0.54298 0.73097 0.67779
 C474 C 0.56965 0.72914 0.69449
 C475 C 0.59014 0.76699 0.66316
 C476 C 0.44362 0.75188 0.63700
 C477 C 0.41618 0.75351 0.65117
 C478 C 0.44264 0.75983 0.69822
 C479 C 0.46968 0.75784 0.68315
 N480 N 0.46964 0.75349 0.65310
 H481 H 0.56061 0.78324 0.62857
 H482 H 0.52473 0.71640 0.68277
 H483 H 0.57188 0.71340 0.71261
 H484 H 0.60825 0.78111 0.65666
 H485 H 0.44430 0.74895 0.61306
 H486 H 0.39572 0.75174 0.63806
 H487 H 0.44273 0.76303 0.72216
 H488 H 0.49055 0.75996 0.69542
 C489 C 0.50263 0.83647 0.57279
 C490 C 0.50846 0.65975 0.57931
 C491 C 0.41562 0.75734 0.68221
 C492 C 0.59364 0.74701 0.68695
 C493 C 0.93664 1.00292 0.69799
 H494 H 0.95048 1.00718 0.71755
 C495 C 0.94748 1.00711 0.67064
 H496 H 0.97012 1.01472 0.66808
 C497 C 0.88893 0.98878 0.67823
 H498 H 0.86558 0.98402 0.68128
 C499 C 0.90008 0.99253 0.64786
 H500 H 0.88465 0.99035 0.62907
 N501 N 0.90603 0.99432 0.70137
 C502 C 0.91507 1.03221 0.78542
 H503 H 0.91071 1.05222 0.77279
 C504 C 0.92235 1.03461 0.81437
 H505 H 0.92348 1.05644 0.82491
 C506 C 0.91950 0.97901 0.78619
 H507 H 0.91561 0.95736 0.77611
 C508 C 0.92727 0.98066 0.81837
 H509 H 0.92881 0.96018 0.83105
 Zn510 Zn 0.88570 0.99792 0.73794
 N511 N 0.91184 1.00319 0.77167
 C512 C 0.86866 0.93761 0.72899
 N513 N 0.86353 0.96287 0.74536
 C514 C 0.84476 0.96277 0.76891
 C515 C 0.82920 0.93699 0.77585
 C516 C 0.85412 0.91121 0.73560
 C517 C 0.87322 1.05819 0.72684
 C518 C 0.85670 1.08492 0.72569
 C519 C 0.81222 1.05729 0.73573
 C520 C 0.82972 1.03107 0.73720
 N521 N 0.85988 1.03214 0.73383
 H522 H 0.88457 0.93765 0.71119
 H523 H 0.84198 0.98275 0.78241
 H524 H 0.81395 0.93725 0.79430
 H525 H 0.85838 0.89138 0.72225
 H526 H 0.89696 1.05829 0.72275
 H527 H 0.86793 1.10555 0.72110
 H528 H 0.78837 1.05641 0.73923
 H529 H 0.81912 1.01008 0.74128
 C530 C 0.92680 1.00731 0.83224
 C531 C 0.92778 1.00246 0.64411
 C532 C 0.82587 1.08465 0.73079
 C533 C 0.83401 0.91083 0.75924
 C534 C 0.42271 0.51134 0.21359
 H535 H 0.42694 0.52569 0.23268
 C536 C 0.43940 0.51447 0.18785
 H537 H 0.45684 0.53090 0.18722
 C538 C 0.39389 0.47335 0.19044
 H539 H 0.37555 0.45800 0.19125
 C540 C 0.40962 0.47618 0.16408
 H541 H 0.40372 0.46240 0.14497
 N542 N 0.40063 0.49086 0.21451
 C543 C 0.38213 0.49287 0.30944
 H544 H 0.35815 0.49625 0.30783
 C545 C 0.39650 0.49289 0.33728
 H546 H 0.38345 0.49624 0.35713
 C547 C 0.42825 0.48440 0.28530
 H548 H 0.44043 0.48074 0.26500
 C549 C 0.44351 0.48401 0.31279
 H550 H 0.46750 0.48038 0.31363
 Zn551 Zn 0.37581 0.49097 0.24809
 N552 N 0.39815 0.48925 0.28417
 C553 C 0.36510 0.43008 0.24574
 N554 N 0.35074 0.45708 0.24741
 C555 C 0.32052 0.45903 0.25020
 C556 C 0.30353 0.43305 0.25079
 C557 C 0.34900 0.40365 0.24604
 C558 C 0.36345 0.55090 0.26395
 C559 C 0.34996 0.57913 0.26100
 C560 C 0.31767 0.55903 0.22225
 C561 C 0.33218 0.53133 0.22550
 N562 N 0.35419 0.52762 0.24654
 H563 H 0.38919 0.42913 0.24416
 H564 H 0.30958 0.48063 0.25251
 H565 H 0.27950 0.43473 0.25305
 H566 H 0.36088 0.38242 0.24454
 H567 H 0.38185 0.54783 0.27964
 H568 H 0.35742 0.59740 0.27509
 H569 H 0.29981 0.56174 0.20582
 H570 H 0.32607 0.51282 0.21109
 C571 C 0.42763 0.48863 0.33903
 C572 C 0.43253 0.49716 0.16264
 C573 C 0.32672 0.58325 0.23995
 C574 C 0.31777 0.40501 0.24858
 C575 C 0.58484 1.02993 0.29666
 H576 H 0.58090 1.04869 0.28197
 C577 C 0.57530 1.03122 0.32483
 H578 H 0.56366 1.05100 0.33293
 C579 C 0.60600 0.98106 0.30329
 H580 H 0.61980 0.96250 0.29612
 C581 C 0.59536 0.98128 0.33411
 H582 H 0.60211 0.96309 0.34869
 N583 N 0.60220 1.00450 0.28649
 C584 C 0.61220 1.00076 0.19030
 H585 H 0.63606 0.99662 0.18990
 C586 C 0.59548 0.99876 0.16393
 H587 H 0.60684 0.99387 0.14332
 C588 C 0.56841 1.01024 0.21798
 H589 H 0.55801 1.01427 0.23921
 C590 C 0.55067 1.00810 0.19195
 H591 H 0.52663 1.01087 0.19309
 Zn592 Zn 0.62443 1.00665 0.25060
 N593 N 0.59867 1.00686 0.21658
 C594 C 0.63302 0.94607 0.24130
 N595 N 0.64828 0.97159 0.24700
 C596 C 0.67856 0.97127 0.25036
 C597 C 0.69454 0.94411 0.24915
 C598 C 0.64800 0.91856 0.24027
 C599 C 0.65003 1.05854 0.27716
 C600 C 0.65997 1.08803 0.27672
 C601 C 0.66928 1.08223 0.22427
 C602 C 0.65913 1.05287 0.22564
 N603 N 0.64811 1.04214 0.25146
 H604 H 0.60896 0.94708 0.23847
 H605 H 0.69017 0.99192 0.25462
 H606 H 0.71857 0.94376 0.25249
 H607 H 0.63536 0.89843 0.23648
 H608 H 0.64196 1.04957 0.29770
 H609 H 0.65853 1.10174 0.29669
 H610 H 0.67511 1.09140 0.20294
 H611 H 0.65795 1.03966 0.20547
 C612 C 0.56430 1.00251 0.16456
 C613 C 0.58211 1.00595 0.34505
 C614 C 0.66836 1.10051 0.24972
 C615 C 0.67910 0.91740 0.24467
 C616 C 0.07898 0.52556 0.79552
 H617 H 0.07406 0.54072 0.77737
 C618 C 0.06262 0.52773 0.82170
 H619 H 0.04478 0.54427 0.82357
 C620 C 0.10890 0.48622 0.81581
 H621 H 0.12737 0.47050 0.81362
 C622 C 0.09363 0.48821 0.84268
 H623 H 0.10007 0.47354 0.86084
 N624 N 0.10137 0.50477 0.79289
 C625 C 0.11787 0.50651 0.69703
 H626 H 0.14194 0.50830 0.69834
 C627 C 0.10332 0.50573 0.66926
 H628 H 0.11622 0.50701 0.64917
 C629 C 0.07182 0.50200 0.72179
 H630 H 0.05975 0.49982 0.74224
 C631 C 0.05640 0.50100 0.69445
 H632 H 0.03237 0.49849 0.69387
 Zn633 Zn 0.12505 0.50494 0.75824
 N634 N 0.10201 0.50501 0.72255
 C635 C 0.13447 0.44402 0.75530
 N636 N 0.14931 0.47025 0.75571
 C637 C 0.17924 0.47111 0.75093
 C638 C 0.19548 0.44463 0.74585
 C639 C 0.14978 0.41714 0.75029
 C640 C 0.14062 0.56281 0.74202
 C641 C 0.15652 0.58923 0.74368
 C642 C 0.18750 0.56774 0.78299
 C643 C 0.17063 0.54181 0.78093
 N644 N 0.14809 0.53966 0.76026
 H645 H 0.11054 0.44413 0.75840
 H646 H 0.19041 0.49227 0.75016
 H647 H 0.21927 0.44536 0.74205
 H648 H 0.13755 0.39648 0.75011
 H649 H 0.12197 0.56103 0.72650
 H650 H 0.15030 0.60743 0.72896
 H651 H 0.20564 0.56929 0.79922
 H652 H 0.17554 0.52332 0.79570
 C653 C 0.07219 0.50293 0.66793
 C654 C 0.07022 0.50926 0.84574
 C655 C 0.18033 0.59176 0.76432
 C656 C 0.18068 0.41736 0.74536
 C657 C 0.78046 0.93281 0.00377
 H658 H 0.75861 0.94330 0.00154
 C659 C 0.80602 0.94986 0.00021
 H660 H 0.80386 0.97358 -0.00411
 C661 C 0.81030 0.88895 0.01041
 H662 H 0.81166 0.86505 0.01378
 C663 C 0.83632 0.90509 0.00697
 H664 H 0.85774 0.89349 0.00811
 N665 N 0.78311 0.90292 0.00883
 C666 C 0.69096 0.89087 -0.01016
 H667 H 0.69443 0.87283 -0.02597
 C668 C 0.66295 0.90501 -0.00862
 H669 H 0.64515 0.89821 -0.02376
 C670 C 0.70939 0.92088 0.02974
 H671 H 0.72743 0.92632 0.04514
 C672 C 0.68195 0.93604 0.03159
 H673 H 0.67889 0.95355 0.04813
 Zn674 Zn 0.75004 0.87743 0.00952
 N675 N 0.71349 0.89906 0.00883
 C676 C 0.76793 0.86267 0.06842
 N677 N 0.75034 0.85472 0.04468
 C678 C 0.73021 0.83244 0.04663
 C679 C 0.72764 0.81665 0.07310
 C680 C 0.76561 0.84788 0.09552
 C681 C 0.75233 0.86799 -0.05111
 C682 C 0.75653 0.85269 -0.07792
 C683 C 0.76377 0.80695 -0.05027
 C684 C 0.75943 0.82318 -0.02386
 N685 N 0.75353 0.85311 -0.02484
 H686 H 0.78309 0.88108 0.06665
 H687 H 0.71587 0.82721 0.02767
 H688 H 0.71163 0.79888 0.07450
 H689 H 0.77953 0.85457 0.11434
 H690 H 0.74825 0.89189 -0.05113
 H691 H 0.75524 0.86494 -0.09860
 H692 H 0.76827 0.78311 -0.04946
 H693 H 0.76130 0.81195 -0.00269
 C694 C 0.65836 0.92787 0.01253
 C695 C 0.83425 0.93592 0.00155
 C696 C 0.76231 0.82175 -0.07761
 C697 C 0.74514 0.82464 0.09794
 C698 C 0.28331 0.42271 0.47363
 H699 H 0.26487 0.42840 0.45868
 C700 C 0.30990 0.43856 0.47263
 H701 H 0.31192 0.45681 0.45717
 C702 C 0.30389 0.39123 0.51131
 H703 H 0.30180 0.37223 0.52574
 C704 C 0.33092 0.40607 0.51065
 H705 H 0.34920 0.39882 0.52516
 N706 N 0.28072 0.39982 0.49310
 C707 C 0.18523 0.38334 0.49340
 H708 H 0.18645 0.35939 0.48995
 C709 C 0.15767 0.39746 0.49782
 H710 H 0.13758 0.38432 0.49725
 C711 C 0.21027 0.42939 0.49924
 H712 H 0.23090 0.44152 0.50078
 C713 C 0.18307 0.44445 0.50370
 H714 H 0.18269 0.46832 0.50790
 Zn715 Zn 0.24625 0.37638 0.49231
 N716 N 0.21076 0.39938 0.49410
 C717 C 0.24677 0.36864 0.55262
 N718 N 0.24627 0.35271 0.52667
 C719 C 0.24476 0.32238 0.52642
 C720 C 0.24451 0.30687 0.55331
 C721 C 0.24675 0.35409 0.57986
 C722 C 0.22879 0.36053 0.43362
 C723 C 0.23168 0.34570 0.40629
 C724 C 0.27258 0.31640 0.42749
 C725 C 0.26938 0.33225 0.45420
 N726 N 0.24746 0.35350 0.45690
 H727 H 0.24745 0.39278 0.55202
 H728 H 0.24348 0.31024 0.50553
 H729 H 0.24343 0.28272 0.55317
 H730 H 0.24745 0.36714 0.60029
 H731 H 0.21217 0.37817 0.43599
 H732 H 0.21673 0.35150 0.38790
 H733 H 0.28985 0.29928 0.42555
 H734 H 0.28454 0.32781 0.47277
 C735 C 0.15652 0.42838 0.50322
 C736 C 0.33406 0.42997 0.49103
 C737 C 0.25385 0.32336 0.40316
 C738 C 0.24574 0.32281 0.58029
 C739 C 0.19656 0.59422 -0.03143
 H740 H 0.20651 0.60179 -0.05162
 C741 C 0.16628 0.58716 -0.03196
 H742 H 0.15336 0.58958 -0.05251
 C743 C 0.19985 0.58559 0.02055
 H744 H 0.21265 0.58655 0.04123
 C745 C 0.16949 0.57860 0.02102
 H746 H 0.15907 0.57431 0.04212
 N747 N 0.21241 0.59454 -0.00520
 C748 C 0.30908 0.60723 -0.00425
 H749 H 0.30817 0.63123 -0.00696
 C750 C 0.33662 0.59236 -0.00270
 H751 H 0.35686 0.60507 -0.00447
 C752 C 0.28349 0.56179 0.00187
 H753 H 0.26263 0.55020 0.00393
 C754 C 0.31077 0.54593 0.00367
 H755 H 0.31099 0.52198 0.00689
 Zn756 Zn 0.24852 0.61638 -0.00205
 N757 N 0.28329 0.59194 -0.00177
 C758 C 0.26855 0.63180 0.05597
 N759 N 0.24777 0.63830 0.03431
 C760 C 0.22581 0.65918 0.03889
 C761 C 0.22518 0.67560 0.06550
 C762 C 0.26813 0.64700 0.08323
 C763 C 0.25688 0.62926 -0.06181
 C764 C 0.25773 0.64632 -0.08759
 C765 C 0.24854 0.69065 -0.05781
 C766 C 0.24796 0.67271 -0.03250
 N767 N 0.25121 0.64246 -0.03505
 H768 H 0.28527 0.61452 0.05239
 H769 H 0.20888 0.66318 0.02178
 H770 H 0.20795 0.69252 0.06886
 H771 H 0.28477 0.64161 0.10028
 H772 H 0.26020 0.60528 -0.06316
 H773 H 0.26160 0.63526 -0.10875
 H774 H 0.24526 0.71461 -0.05573
 H775 H 0.24466 0.68308 -0.01102
 C776 C 0.33766 0.56133 0.00154
 C777 C 0.15223 0.58069 -0.00529
 C778 C 0.25303 0.67741 -0.08572
 C779 C 0.24637 0.66934 0.08798
 C780 C 0.72196 0.07176 0.50163
 H781 H 0.74314 0.06057 0.50602
 C782 C 0.69551 0.05582 0.50357
 H783 H 0.69639 0.03221 0.50863
 C784 C 0.69439 0.11627 0.49095
 H785 H 0.69421 0.13993 0.48621
 C786 C 0.66749 0.10133 0.49313
 H787 H 0.64660 0.11349 0.48969
 N788 N 0.72089 0.10136 0.49491
 C789 C 0.81572 0.11381 0.50467
 H790 H 0.81442 0.13488 0.51648
 C791 C 0.84304 0.09840 0.50361
 H792 H 0.86247 0.10758 0.51487
 C793 C 0.79239 0.07629 0.47526
 H794 H 0.77276 0.06804 0.46369
 C795 C 0.81912 0.05970 0.47439
 H796 H 0.81997 0.03857 0.46245
 Zn797 Zn 0.75490 0.12548 0.49234
 N798 N 0.79101 0.10260 0.49072
 C799 C 0.74235 0.13877 0.55142
 N800 N 0.75596 0.14999 0.52720
 C801 C 0.77141 0.17593 0.52908
 C802 C 0.77322 0.19175 0.55611
 C803 C 0.74388 0.15363 0.57879
 C804 C 0.75312 0.13214 0.43059
 C805 C 0.74889 0.14652 0.40331
 C806 C 0.73777 0.19229 0.43015
 C807 C 0.74219 0.17705 0.45694
 N808 N 0.75013 0.14756 0.45670
 H809 H 0.73082 0.11780 0.54978
 H810 H 0.78282 0.18402 0.50981
 H811 H 0.78560 0.21230 0.55753
 H812 H 0.73301 0.14417 0.59778
 H813 H 0.75870 0.10857 0.43091
 H814 H 0.75166 0.13401 0.38276
 H815 H 0.73169 0.21582 0.43046
 H816 H 0.73873 0.18867 0.47782
 C817 C 0.84475 0.07092 0.48845
 C818 C 0.66801 0.07069 0.49936
 C819 C 0.74122 0.17702 0.40306
 C820 C 0.75960 0.18039 0.58134
 C821 C 0.98541 0.71257 0.93279
 H822 H 0.97078 0.73089 0.93925
 C823 C 0.97981 0.68472 0.94172
 H824 H 0.96073 0.68056 0.95548
 C825 C 1.02831 0.69633 0.90587
 H826 H 1.04534 0.69989 0.88969
 C827 C 1.02332 0.66551 0.91569
 H828 H 1.03703 0.64753 0.90662
 N829 N 1.00948 0.71779 0.91270
 C830 C 0.97935 0.79864 0.92288
 H831 H 0.96133 0.78286 0.92326
 C832 C 0.97401 0.82743 0.92977
 H833 H 0.95177 0.83483 0.93587
 C834 C 1.03062 0.80746 0.91291
 H835 H 1.05170 0.80086 0.90351
 C836 C 1.02582 0.83927 0.92082
 H837 H 1.04361 0.85483 0.91704
 Zn838 Zn 1.00979 0.75321 0.88919
 N839 N 1.00831 0.78908 0.91256
 C840 C 0.95446 0.73210 0.86559
 N841 N 0.97473 0.75437 0.86454
 C842 C 0.96949 0.77899 0.84747
 C843 C 0.94286 0.78201 0.83082
 C844 C 0.92725 0.73464 0.85001
 C845 C 1.07184 0.75171 0.87808
 C846 C 1.09758 0.75055 0.86101
 C847 C 1.06642 0.74921 0.81650
 C848 C 1.04119 0.75068 0.83443
 N849 N 1.04428 0.75220 0.86468
 H850 H 0.95909 0.71247 0.87879
 H851 H 0.98587 0.79648 0.84714
 H852 H 0.93877 0.80171 0.81742
 H853 H 0.91117 0.71694 0.85140
 H854 H 1.07380 0.75199 0.90215
 H855 H 1.11927 0.75032 0.87214
 H856 H 1.06376 0.74807 0.79249
 H857 H 1.01920 0.75028 0.82411
 C858 C 0.99822 0.84924 0.92711
 C859 C 0.99906 0.65960 0.93141
 C860 C 1.09494 0.74937 0.82978
 C861 C 0.92120 0.76000 0.83261
 C862 C 0.50294 0.21346 0.42890
 H863 H 0.50413 0.23450 0.44082
 C864 C 0.50697 0.18670 0.44441
 H865 H 0.51056 0.18713 0.46834
 C866 C 0.49803 0.18686 0.38316
 H867 H 0.49497 0.18724 0.35919
 C868 C 0.50194 0.15966 0.39776
 H869 H 0.50148 0.13906 0.38493
 N870 N 0.49831 0.21301 0.39884
 C871 C 0.51279 0.30597 0.39323
 H872 H 0.52820 0.30379 0.37507
 C873 C 0.51065 0.33299 0.40876
 H874 H 0.52499 0.35117 0.40287
 C875 C 0.47421 0.28567 0.42190
 H876 H 0.45952 0.26733 0.42625
 C877 C 0.47170 0.31221 0.43839
 H878 H 0.45532 0.31429 0.45577
 Zn879 Zn 0.49557 0.24821 0.37602
 N880 N 0.49480 0.28295 0.40008
 C881 C 0.43761 0.23039 0.35817
 N882 N 0.46015 0.24939 0.35254
 C883 C 0.45684 0.27134 0.33188
 C884 C 0.43032 0.27418 0.31515
 C885 C 0.41045 0.23296 0.34250
 C886 C 0.55641 0.24899 0.36755
 C887 C 0.58318 0.24923 0.35223
 C888 C 0.55492 0.24591 0.30588
 C889 C 0.52861 0.24584 0.32210
 N890 N 0.52985 0.24792 0.35236
 H891 H 0.44039 0.21371 0.37531
 H892 H 0.47481 0.28673 0.32852
 H893 H 0.42791 0.29149 0.29853
 H894 H 0.39263 0.21777 0.34725
 H895 H 0.55668 0.25005 0.39165
 H896 H 0.60411 0.25053 0.36465
 H897 H 0.55390 0.24456 0.28177
 H898 H 0.50734 0.24396 0.31051
 C899 C 0.48979 0.33626 0.43156
 C900 C 0.50650 0.15950 0.42879
 C901 C 0.58246 0.24791 0.32098
 C902 C 0.40672 0.25512 0.32071
 C903 C 1.02471 0.29310 0.58538
 H904 H 1.04361 0.27780 0.58373
 C905 C 1.02788 0.32314 0.57774
 H906 H 1.04927 0.33086 0.57026
 C907 C 0.97520 0.30280 0.60116
 H908 H 0.95528 0.29547 0.61186
 C909 C 0.97730 0.33281 0.59343
 H910 H 0.95895 0.34812 0.59826
 N911 N 0.99910 0.28386 0.59806
 C912 C 0.99860 0.18679 0.60684
 H913 H 0.99767 0.18599 0.63090
 C914 C 0.99823 0.16039 0.59023
 H915 H 0.99707 0.13929 0.60170
 C916 C 1.00100 0.21556 0.56287
 H917 H 1.00196 0.23721 0.55246
 C918 C 1.00037 0.18952 0.54525
 H919 H 1.00105 0.19107 0.52121
 Zn920 Zn 1.00049 0.24708 0.61898
 N921 N 1.00042 0.21360 0.59310
 C922 C 0.93983 0.24096 0.62795
 N923 N 0.96638 0.24407 0.64283
 C924 C 0.96802 0.24432 0.67314
 C925 C 0.94194 0.24235 0.68967
 C926 C 0.91330 0.23932 0.64355
 C927 C 1.04238 0.27226 0.65885
 C928 C 1.07135 0.27716 0.66998
 C929 C 1.08665 0.22935 0.64953
 C930 C 1.05757 0.22546 0.63851
 N931 N 1.03637 0.24727 0.64243
 H932 H 0.93930 0.24027 0.60384
 H933 H 0.98945 0.24624 0.68447
 H934 H 0.94323 0.24295 0.71379
 H935 H 0.89232 0.23740 0.63131
 H936 H 1.02535 0.28955 0.66113
 H937 H 1.07657 0.29831 0.68063
 H938 H 1.10390 0.21299 0.64414
 H939 H 1.05277 0.20611 0.62484
 C940 C 0.99929 0.16159 0.55901
 C941 C 1.00429 0.34341 0.58289
 C942 C 1.09395 0.25595 0.66432
 C943 C 0.91424 0.24029 0.67481
 C944 C 0.51537 0.78720 0.07963
 H945 H 0.53023 0.76855 0.07472
 C946 C 0.51751 0.81378 0.06377
 H947 H 0.53366 0.81548 0.04624
 C948 C 0.47706 0.80841 0.10932
 H949 H 0.46192 0.80649 0.12765
 C950 C 0.47891 0.83558 0.09445
 H951 H 0.46463 0.85420 0.10098
 N952 N 0.49515 0.78489 0.10171
 C953 C 0.49939 0.68882 0.11828
 H954 H 0.50261 0.68990 0.14222
 C955 C 0.49896 0.66114 0.10372
 H956 H 0.50200 0.64093 0.11658
 C957 C 0.49115 0.71404 0.07253
 H958 H 0.48753 0.73468 0.06058
 C959 C 0.49042 0.68675 0.05708
 H960 H 0.48670 0.68642 0.03317
 Zn961 Zn 0.49613 0.75022 0.12557
 N962 N 0.49589 0.71455 0.10257
 C963 C 0.43493 0.75010 0.13367
 N964 N 0.46136 0.74919 0.14921
 C965 C 0.46212 0.74589 0.17934
 C966 C 0.43543 0.74384 0.19497
 C967 C 0.40783 0.74830 0.14839
 C968 C 0.55640 0.73554 0.13930
 C969 C 0.58435 0.73915 0.15322
 C970 C 0.56230 0.77662 0.18547
 C971 C 0.53489 0.77274 0.17056
 N972 N 0.53230 0.75209 0.14826
 H973 H 0.43498 0.75218 0.10967
 H974 H 0.48331 0.74431 0.19122
 H975 H 0.43615 0.74115 0.21893
 H976 H 0.38708 0.74918 0.13560
 H977 H 0.55420 0.72011 0.12075
 H978 H 0.60328 0.72581 0.14588
 H979 H 0.56409 0.79283 0.20346
 H980 H 0.51574 0.78647 0.17651
 C981 C 0.49448 0.66000 0.07270
 C982 C 0.49950 0.83841 0.07148
 C983 C 0.58740 0.75996 0.17661
 C984 C 0.40795 0.74509 0.17947
 O985 O -0.03676 1.00239 0.90797
 O986 O 0.01028 1.02391 0.90215
 O987 O -0.01539 0.92572 0.96346
 O988 O 0.00657 0.91797 1.00808
 O989 O -0.08976 0.98559 0.98727
 O990 O -0.09275 1.03489 1.00798
 O991 O 0.06481 1.00184 1.04447
 O992 O 0.06946 0.96004 1.01407
 O993 O 0.05129 1.07454 0.98545
 O994 O 0.01547 1.08462 0.94352
 O995 O -0.00569 1.06588 1.05787
 O996 O -0.04929 1.03156 1.06750
 O997 O 0.02540 1.01704 1.07245
 O998 O -0.02230 0.99867 1.08142
 O999 O 0.00539 1.09243 1.01677
 O1000 O -0.01838 1.09844 0.96841
 O1001 O 0.07797 1.03344 1.00020
 O1002 O 0.07942 0.98733 0.96966
 O1003 O -0.07567 1.01569 0.93756
 O1004 O -0.08252 1.05782 0.96998
 O1005 O -0.06226 0.94358 0.99736
 O1006 O -0.02688 0.93514 1.03838
 O1007 O -0.00728 0.95375 0.92248
 O1008 O 0.03858 0.98332 0.91676
 Zr1009 Zr -0.00083 0.99724 0.93895
 O1010 O 0.02932 1.02358 0.96403
 Zr1011 Zr -0.01776 0.95778 0.99842
 O1012 O 0.01120 0.98290 1.02595
 Zr1013 Zr -0.05764 1.01873 0.98103
 O1014 O -0.03009 1.04647 1.00730
 Zr1015 Zr 0.04619 0.99952 1.00090
 O1016 O 0.01887 0.97161 0.97370
 Zr1017 Zr 0.00654 1.06032 0.98253
 O1018 O -0.02325 1.03565 0.95505
 Zr1019 Zr -0.01086 1.02146 1.04227
 O1020 O -0.04110 0.99427 1.01776
 O1021 O -0.03651 0.98135 0.96293
 O1022 O 0.02522 1.03749 1.01891
 C1023 C -0.06437 1.00977 0.91205
 C1024 C -0.01184 0.92877 0.93523
 C1025 C -0.08722 0.95773 0.99380
 C1026 C 0.05281 1.00862 1.06955
 C1027 C 0.07590 1.06103 0.99274
 C1028 C -0.00027 1.09049 1.04458
 H1029 H 0.04572 1.02975 0.95110
 H1030 H -0.04231 1.06353 1.01459
 H1031 H -0.05041 0.96905 0.95079
 H1032 H 0.01890 0.97001 1.04225
 H1033 H 0.06454 0.94453 0.99896
 H1034 H 0.02433 0.92363 1.02017
 H1035 H -0.03689 1.09938 0.98010
 H1036 H -0.07087 1.06847 0.95497
 H1037 H 0.09923 0.98821 0.97992
 H1038 H 0.03287 0.97512 0.89687
 H1039 H -0.05794 1.05071 1.06021
 H1040 H -0.09091 1.02410 1.02710
 H1041 H -0.00042 1.04331 0.90459
 H1042 H 0.03229 1.07450 0.93331
 H1043 H -0.04214 0.94728 1.04893
 H1044 H -0.01379 0.97818 1.07990
 O1045 O 0.48509 0.41492 0.48064
 O1046 O 0.50619 0.41070 0.52778
 O1047 O 0.41215 0.47743 0.49114
 O1048 O 0.40506 0.52436 0.50628
 O1049 O 0.47424 0.48718 0.41920
 O1050 O 0.52274 0.50674 0.41637
 O1051 O 0.48973 0.55769 0.56961
 O1052 O 0.44707 0.53115 0.57470
 O1053 O 0.56052 0.49424 0.56388
 O1054 O 0.57119 0.45106 0.53352
 O1055 O 0.55341 0.56399 0.50150
 O1056 O 0.52373 0.57403 0.45790
 O1057 O 0.50693 0.58198 0.52923
 O1058 O 0.48488 0.58605 0.47671
 O1059 O 0.57891 0.52275 0.51777
 O1060 O 0.58350 0.47075 0.49623
 O1061 O 0.51960 0.51239 0.58773
 O1062 O 0.47135 0.48514 0.58848
 O1063 O 0.50392 0.43886 0.44076
 O1064 O 0.54659 0.47033 0.43317
 O1065 O 0.43252 0.50441 0.44231
 O1066 O 0.42599 0.55047 0.47388
 O1067 O 0.43686 0.43595 0.50812
 O1068 O 0.46789 0.43093 0.55409
 Zr1069 Zr 0.48170 0.44892 0.51306
 O1070 O 0.50910 0.47439 0.54178
 Zr1071 Zr 0.44562 0.50930 0.48750
 O1072 O 0.47049 0.53706 0.51643
 Zr1073 Zr 0.50646 0.48414 0.45372
 O1074 O 0.53396 0.51189 0.48006
 Zr1075 Zr 0.48586 0.51353 0.55418
 O1076 O 0.45716 0.48686 0.52735
 Zr1077 Zr 0.54657 0.48929 0.51921
 O1078 O 0.52129 0.46042 0.49151
 Zr1079 Zr 0.50950 0.54952 0.49498
 O1080 O 0.48322 0.52392 0.46477
 O1081 O 0.46785 0.47049 0.47418
 O1082 O 0.52437 0.52796 0.53360
 C1083 C 0.49528 0.41531 0.45404
 C1084 C 0.41301 0.45017 0.49986
 C1085 C 0.44674 0.49591 0.41904
 C1086 C 0.49845 0.58124 0.55645
 C1087 C 0.54706 0.50342 0.58729
 C1088 C 0.57738 0.55032 0.51010
 H1089 H 0.51478 0.46231 0.55940
 H1090 H 0.55141 0.51755 0.46832
 H1091 H 0.45529 0.45763 0.46117
 H1092 H 0.45799 0.55452 0.52223
 H1093 H 0.43064 0.51734 0.56960
 H1094 H 0.41027 0.53322 0.52591
 H1095 H 0.58787 0.48411 0.47949
 H1096 H 0.55626 0.45532 0.44644
 H1097 H 0.47321 0.49614 0.60770
 H1098 H 0.45807 0.41154 0.55012
 H1099 H 0.53786 0.56109 0.44679
 H1100 H 0.51295 0.52676 0.41634
 H1101 H 0.52623 0.41168 0.51892
 H1102 H 0.55880 0.44041 0.54788
 H1103 H 0.43761 0.55753 0.45685
 H1104 H 0.46837 0.59106 0.49033
 O1105 O 0.43871 0.00375 0.55171
 O1106 O 0.43163 0.04500 0.52151
 O1107 O 0.45212 -0.06902 0.48962
 O1108 O 0.48240 -0.07872 0.45111
 O1109 O 0.51065 -0.06008 0.56476
 O1110 O 0.55217 -0.02868 0.57653
 O1111 O 0.53767 0.01144 0.41811
 O1112 O 0.49409 -0.01506 0.40891
 O1113 O 0.51719 0.08119 0.47633
 O1114 O 0.49492 0.08603 0.52530
 O1115 O 0.59154 0.02161 0.49672
 O1116 O 0.59589 -0.02913 0.51537
 O1117 O 0.57718 -0.00141 0.44829
 O1118 O 0.58403 -0.05026 0.47706
 O1119 O 0.56406 0.06366 0.50627
 O1120 O 0.53005 0.07205 0.54987
 O1121 O 0.50609 0.05533 0.43380
 O1122 O 0.46104 0.02440 0.42635
 O1123 O 0.47884 -0.01116 0.58017
 O1124 O 0.52714 0.00897 0.58890
 O1125 O 0.49960 -0.08629 0.52243
 O1126 O 0.52473 -0.08906 0.47438
 O1127 O 0.42464 -0.02781 0.50248
 O1128 O 0.42277 0.02134 0.47752
 Zr1129 Zr 0.45614 0.00626 0.50845
 O1130 O 0.48306 0.03477 0.48386
 Zr1131 Zr 0.49635 -0.05369 0.48892
 O1132 O 0.52453 -0.02761 0.46281
 Zr1133 Zr 0.51433 -0.01569 0.55047
 O1134 O 0.54366 0.01166 0.52750
 Zr1135 Zr 0.50168 0.01095 0.44790
 O1136 O 0.47219 -0.01712 0.47076
 Zr1137 Zr 0.51989 0.04858 0.50984
 O1138 O 0.49112 0.02282 0.53570
 Zr1139 Zr 0.55951 -0.01147 0.48994
 O1140 O 0.53327 -0.04031 0.51527
 O1141 O 0.47836 -0.03129 0.52534
 O1142 O 0.53779 0.02651 0.47323
 C1143 C 0.45134 -0.00283 0.57686
 C1144 C 0.42719 -0.05555 0.49509
 C1145 C 0.50543 -0.08452 0.55056
 C1146 C 0.56583 0.00709 0.42325
 C1147 C 0.51133 0.07965 0.44820
 C1148 C 0.58895 0.04980 0.50173
 H1149 H 0.47050 0.05183 0.47690
 H1150 H 0.56010 0.01768 0.54119
 H1151 H 0.46519 -0.04394 0.53719
 H1152 H 0.53207 -0.03939 0.44570
 H1153 H 0.47572 -0.02647 0.41226
 H1154 H 0.49153 -0.06958 0.43358
 H1155 H 0.54826 0.06280 0.55893
 H1156 H 0.51738 0.02890 0.58702
 H1157 H 0.46588 0.03195 0.40633
 H1158 H 0.40275 0.01744 0.48566
 H1159 H 0.59632 -0.01831 0.53469
 H1160 H 0.56334 -0.04374 0.56464
 H1161 H 0.44448 0.05609 0.53584
 H1162 H 0.47676 0.08792 0.51248
 H1163 H 0.54274 -0.08886 0.48753
 H1164 H 0.57793 -0.05566 0.45642
 O1165 O 0.02079 0.51186 0.92317
 O1166 O -0.02122 0.48210 0.92201
 O1167 O -0.00349 0.58877 0.97502
 O1168 O -0.02090 0.59827 1.02029
 O1169 O 0.07995 0.54093 0.99428
 O1170 O 0.09149 0.49528 1.01993
 O1171 O -0.06487 0.50839 1.06576
 O1172 O -0.07769 0.54824 1.03571
 O1173 O -0.04844 0.43505 1.00999
 O1174 O -0.01392 0.42477 0.96856
 O1175 O 0.01523 0.45875 1.07893
 O1176 O 0.05335 0.49791 1.08382
 O1177 O -0.02112 0.50257 1.09195
 O1178 O 0.02527 0.53087 1.09445
 O1179 O 0.00044 0.42635 1.04252
 O1180 O 0.02277 0.41771 0.99359
 O1181 O -0.07895 0.47435 1.02184
 O1182 O -0.08785 0.51896 0.99153
 O1183 O 0.06395 0.50217 0.94933
 O1184 O 0.08031 0.46632 0.98525
 O1185 O 0.04825 0.57966 1.00496
 O1186 O 0.01720 0.58710 1.04910
 O1187 O -0.01698 0.55634 0.93808
 O1188 O -0.05489 0.51761 0.93608
 Zr1189 Zr -0.01177 0.51346 0.95646
 O1190 O -0.03492 0.48585 0.98543
 Zr1191 Zr 0.00653 0.56040 1.01129
 O1192 O -0.01633 0.53487 1.04245
 Zr1193 Zr 0.05187 0.50330 0.99459
 O1194 O 0.03109 0.47525 1.02528
 Zr1195 Zr -0.05105 0.51147 1.02132
 O1196 O -0.03057 0.53996 0.99066
 Zr1197 Zr -0.00583 0.45408 1.00500
 O1198 O 0.01709 0.47967 0.97338
 Zr1199 Zr 0.01239 0.50132 1.05957
 O1200 O 0.03643 0.52907 1.03081
 O1201 O 0.02399 0.53599 0.97589
 O1202 O -0.02353 0.47843 1.04050
 C1203 C 0.04906 0.50602 0.92482
 C1204 C -0.01310 0.58282 0.94847
 C1205 C 0.07423 0.56884 0.99919
 C1206 C -0.04978 0.50531 1.09026
 C1207 C -0.07427 0.44661 1.01568
 C1208 C 0.00948 0.43237 1.06924
 H1209 H -0.05137 0.47653 0.97384
 H1210 H 0.04600 0.46063 1.03309
 H1211 H 0.03425 0.54878 0.96153
 H1212 H -0.02418 0.54806 1.05838
 H1213 H -0.07614 0.56383 1.02033
 H1214 H -0.03666 0.59178 1.03380
 H1215 H 0.04136 0.41937 1.00574
 H1216 H 0.06798 0.45172 0.97404
 H1217 H -0.10658 0.51644 1.00264
 H1218 H -0.05283 0.52504 0.91545
 H1219 H 0.06523 0.48137 1.07493
 H1220 H 0.09016 0.50813 1.03795
 H1221 H -0.00751 0.46475 0.92509
 H1222 H -0.03183 0.43241 0.95760
 H1223 H 0.03536 0.57811 1.05856
 H1224 H 0.01077 0.54781 1.09462
 O1225 O -0.00803 0.54789 0.43854
 O1226 O 0.03233 0.51735 0.42986
 O1227 O -0.07665 0.48176 0.45723
 O1228 O -0.08651 0.44884 0.49161
 O1229 O -0.06674 0.56222 0.51311
 O1230 O -0.03263 0.57575 0.55139
 O1231 O 0.00998 0.41544 0.54014
 O1232 O -0.01787 0.40578 0.49766
 O1233 O 0.07733 0.47446 0.51639
 O1234 O 0.07974 0.52221 0.49330
 O1235 O 0.02242 0.49530 0.59184
 O1236 O -0.02705 0.51315 0.59857
 O1237 O -0.00068 0.44614 0.57936
 O1238 O -0.05008 0.47640 0.58639
 O1239 O 0.06195 0.50619 0.56314
 O1240 O 0.06582 0.54880 0.52622
 O1241 O 0.05234 0.43145 0.50732
 O1242 O 0.01877 0.42306 0.46358
 O1243 O -0.02107 0.57726 0.47806
 O1244 O 0.00324 0.58648 0.52538
 O1245 O -0.09220 0.51990 0.50210
 O1246 O -0.09094 0.47223 0.53169
 O1247 O -0.04024 0.49810 0.42709
 O1248 O 0.01009 0.47283 0.42437
 Zr1249 Zr -0.00352 0.50477 0.45691
 O1250 O 0.02807 0.48113 0.48354
 Zr1251 Zr -0.05909 0.48595 0.50055
 O1252 O -0.03009 0.46014 0.52783
 Zr1253 Zr -0.02182 0.54812 0.51453
 O1254 O 0.00806 0.52561 0.54362
 Zr1255 Zr 0.00718 0.44514 0.50392
 O1256 O -0.02412 0.46726 0.47530
 Zr1257 Zr 0.04380 0.50776 0.51919
 O1258 O 0.01516 0.53273 0.49030
 Zr1259 Zr -0.01246 0.48800 0.56129
 O1260 O -0.04380 0.51329 0.53574
 O1261 O -0.03969 0.52214 0.48015
 O1262 O 0.02455 0.47106 0.53883
 C1263 C -0.01420 0.57341 0.45059
 C1264 C -0.06648 0.48784 0.43155
 C1265 C -0.09094 0.54799 0.50810
 C1266 C 0.00699 0.42070 0.56819
 C1267 C 0.07644 0.44621 0.51123
 C1268 C 0.04995 0.50163 0.58849
 H1269 H 0.04448 0.47408 0.47064
 H1270 H 0.01475 0.53967 0.55940
 H1271 H -0.05373 0.53346 0.46697
 H1272 H -0.04086 0.44308 0.53607
 H1273 H -0.03082 0.40907 0.47981
 H1274 H -0.07382 0.43084 0.49496
 H1275 H 0.05821 0.55796 0.54480
 H1276 H 0.02160 0.58521 0.51344
 H1277 H 0.02745 0.40315 0.46865
 H1278 H 0.00361 0.47993 0.40434
 H1279 H -0.01876 0.53339 0.59686
 H1280 H -0.04529 0.56377 0.56443
 H1281 H 0.04503 0.53073 0.44216
 H1282 H 0.07967 0.51020 0.47468
 H1283 H -0.09230 0.48815 0.54710
 H1284 H -0.05458 0.45519 0.58220
 O1285 O 0.51535 0.99113 0.08466
 O1286 O 0.46860 1.01215 0.08630
 O1287 O 0.50458 0.91636 0.02330
 O1288 O 0.48956 0.90923 -0.02352
 O1289 O 0.57901 0.97603 0.01386
 O1290 O 0.58370 1.02472 -0.00526
 O1291 O 0.43102 0.99644 -0.06183
 O1292 O 0.42413 0.95324 -0.03563
 O1293 O 0.43681 1.06671 -0.00122
 O1294 O 0.46563 1.07659 0.04443
 O1295 O 0.50160 1.05715 -0.06622
 O1296 O 0.54564 1.02506 -0.07290
 O1297 O 0.47338 1.01043 -0.08482
 O1298 O 0.52471 0.98842 -0.08676
 O1299 O 0.48565 1.08370 -0.02602
 O1300 O 0.50413 1.08794 0.02660
 O1301 O 0.41191 1.02548 -0.01697
 O1302 O 0.40927 0.97773 0.00977
 O1303 O 0.55742 1.00557 0.06137
 O1304 O 0.56679 1.04845 0.03092
 O1305 O 0.55494 0.93505 -0.00380
 O1306 O 0.52388 0.92806 -0.04915
 O1307 O 0.48714 0.94217 0.06343
 O1308 O 0.44168 0.97474 0.06558
 Zr1309 Zr 0.48396 0.98697 0.04927
 O1310 O 0.45684 1.01480 0.02198
 Zr1311 Zr 0.51003 0.94922 -0.00921
 O1312 O 0.48310 0.97480 -0.03866
 Zr1313 Zr 0.54528 1.00919 0.01602
 O1314 O 0.52070 1.03738 -0.01305
 Zr1315 Zr 0.44497 0.99148 -0.01714
 O1316 O 0.46988 0.96242 0.01132
 Zr1317 Zr 0.48096 1.05148 0.00735
 O1318 O 0.50713 1.02567 0.03771
 Zr1319 Zr 0.50630 1.01307 -0.05081
 O1320 O 0.53456 0.98587 -0.02358
 O1321 O 0.52312 0.97143 0.02960
 O1322 O 0.46722 1.02925 -0.03139
 C1323 C 0.54286 0.99911 0.08476
 C1324 C 0.49493 0.91782 0.05008
 C1325 C 0.57860 0.94873 0.00479
 C1326 C 0.44559 1.00356 -0.08504
 C1327 C 0.41297 1.05331 -0.00985
 C1328 C 0.49403 1.08167 -0.05319
 H1329 H 0.43890 1.02111 0.03310
 H1330 H 0.53331 1.05437 -0.01835
 H1331 H 0.53550 0.95860 0.04301
 H1332 H 0.47745 0.96235 -0.05612
 H1333 H 0.42780 0.93680 -0.02132
 H1334 H 0.47129 0.91509 -0.03492
 H1335 H 0.52250 1.09071 0.01510
 H1336 H 0.55322 1.05843 0.04522
 H1337 H 0.39045 0.97932 -0.00220
 H1338 H 0.44464 0.96476 0.08510
 H1339 H 0.55519 1.04120 -0.06114
 H1340 H 0.58391 1.01510 -0.02522
 H1341 H 0.47651 1.03253 0.08424
 H1342 H 0.44908 1.06558 0.05331
 H1343 H 0.54057 0.93980 -0.05682
 H1344 H 0.51189 0.97099 -0.09072
 O1345 O 0.48124 0.50603 0.08553
 O1346 O 0.52925 0.48723 0.09045
 O1347 O 0.49107 0.58047 0.02537
 O1348 O 0.50471 0.58796 -0.02087
 O1349 O 0.41929 0.51597 0.01077
 O1350 O 0.41824 0.46709 -0.00928
 O1351 O 0.57081 0.50442 -0.05449
 O1352 O 0.57433 0.54780 -0.02693
 O1353 O 0.56735 0.43420 0.00676
 O1354 O 0.53691 0.42223 0.04832
 O1355 O 0.50308 0.43912 -0.06436
 O1356 O 0.45945 0.46829 -0.07501
 O1357 O 0.53031 0.48754 -0.08060
 O1358 O 0.47730 0.50708 -0.08542
 O1359 O 0.52088 0.41404 -0.02379
 O1360 O 0.50005 0.40888 0.02737
 O1361 O 0.58996 0.47592 -0.00948
 O1362 O 0.58918 0.52376 0.01886
 O1363 O 0.44156 0.48700 0.05962
 O1364 O 0.43533 0.44431 0.02723
 O1365 O 0.44174 0.55847 -0.00367
 O1366 O 0.47343 0.56621 -0.04819
 O1367 O 0.50674 0.55585 0.06705
 O1368 O 0.55423 0.52657 0.07209
 Zr1369 Zr 0.51358 0.51125 0.05264
 O1370 O 0.54322 0.48475 0.02723
 Zr1371 Zr 0.48737 0.54676 -0.00728
 O1372 O 0.51691 0.52270 -0.03486
 Zr1373 Zr 0.45493 0.48492 0.01490
 O1374 O 0.48219 0.45822 -0.01264
 Zr1375 Zr 0.55515 0.50830 -0.01081
 O1376 O 0.52754 0.53618 0.01594
 Zr1377 Zr 0.52191 0.44656 0.01050
 O1378 O 0.49327 0.47103 0.03916
 Zr1379 Zr 0.49641 0.48312 -0.04908
 O1380 O 0.46555 0.50860 -0.02369
 O1381 O 0.47428 0.52414 0.03035
 O1382 O 0.53565 0.46919 -0.02708
 C1383 C 0.45476 0.49529 0.08392
 C1384 C 0.49894 0.57974 0.05304
 C1385 C 0.41857 0.54346 0.00276
 C1386 C 0.55751 0.49634 -0.07878
 C1387 C 0.59048 0.44850 -0.00118
 C1388 C 0.51211 0.41524 -0.05121
 H1389 H 0.56103 0.47960 0.03968
 H1390 H 0.47080 0.44049 -0.01906
 H1391 H 0.46080 0.53629 0.04307
 H1392 H 0.52239 0.53545 -0.05171
 H1393 H 0.56922 0.56395 -0.01258
 H1394 H 0.52493 0.58355 -0.02842
 H1395 H 0.48298 0.40439 0.01381
 H1396 H 0.44912 0.43485 0.04200
 H1397 H 0.60838 0.52311 0.00819
 H1398 H 0.54992 0.53625 0.09157
 H1399 H 0.44870 0.45372 -0.06295
 H1400 H 0.41777 0.47698 -0.02893
 H1401 H 0.52139 0.46676 0.08843
 H1402 H 0.55093 0.43502 0.05975
 H1403 H 0.45667 0.55419 -0.05616
 H1404 H 0.48991 0.52458 -0.08900
 O1405 O 0.07109 -0.00291 0.43209
 O1406 O 0.07946 0.04046 0.45826
 O1407 O 0.06523 -0.06959 0.50092
 O1408 O 0.03738 -0.07751 0.54060
 O1409 O 0.00082 -0.06650 0.42883
 O1410 O -0.04280 -0.03582 0.41901
 O1411 O -0.01509 0.01700 0.57322
 O1412 O 0.02980 -0.00960 0.57971
 O1413 O -0.00385 0.08161 0.50979
 O1414 O 0.01535 0.08235 0.45874
 O1415 O -0.07703 0.02143 0.49796
 O1416 O -0.08201 -0.02995 0.48523
 O1417 O -0.05731 0.00338 0.54788
 O1418 O -0.06466 -0.04893 0.52279
 O1419 O -0.05147 0.06235 0.48424
 O1420 O -0.02148 0.06700 0.43781
 O1421 O 0.01194 0.05856 0.55235
 O1422 O 0.05934 0.02847 0.55696
 O1423 O 0.02919 -0.01896 0.40767
 O1424 O -0.02053 0.00081 0.40245
 O1425 O 0.01571 -0.08950 0.47168
 O1426 O -0.00585 -0.08772 0.52188
 O1427 O 0.09021 -0.03006 0.48279
 O1428 O 0.09263 0.02131 0.50302
 Zr1429 Zr 0.05730 0.00353 0.47637
 O1430 O 0.03200 0.03439 0.50154
 Zr1431 Zr 0.02054 -0.05430 0.50287
 O1432 O -0.00572 -0.02576 0.52995
 Zr1433 Zr -0.00338 -0.02103 0.44086
 O1434 O -0.03135 0.00844 0.46489
 Zr1435 Zr 0.01749 0.01344 0.54021
 O1436 O 0.04530 -0.01680 0.51655
 Zr1437 Zr -0.00736 0.04652 0.47816
 O1438 O 0.01968 0.01836 0.45134
 Zr1439 Zr -0.04342 -0.01116 0.50525
 O1440 O -0.01880 -0.04231 0.47909
 O1441 O 0.03499 -0.03513 0.46376
 O1442 O -0.02120 0.02758 0.51749
 C1443 C 0.05664 -0.01084 0.40832
 C1444 C 0.08924 -0.05671 0.49310
 C1445 C 0.00772 -0.08990 0.44401
 C1446 C -0.04350 0.01370 0.57111
 C1447 C 0.00382 0.08180 0.53757
 C1448 C -0.07562 0.04911 0.49093
 H1449 H 0.04443 0.05188 0.50648
 H1450 H -0.04902 0.01350 0.45225
 H1451 H 0.04767 -0.04887 0.45181
 H1452 H -0.01133 -0.03600 0.54839
 H1453 H 0.04824 -0.02123 0.57526
 H1454 H 0.03143 -0.06570 0.55831
 H1455 H -0.03978 0.05692 0.43059
 H1456 H -0.01107 0.02062 0.40211
 H1457 H 0.05605 0.03773 0.57681
 H1458 H 0.11202 0.01634 0.49362
 H1459 H -0.08286 -0.02318 0.46431
 H1460 H -0.05217 -0.05009 0.43257
 H1461 H 0.06470 0.05109 0.44530
 H1462 H 0.03397 0.08552 0.47051
 H1463 H -0.02442 -0.08893 0.50962
 H1464 H -0.05845 -0.05094 0.54397
 O1465 O 0.73619 0.32740 0.19609
 O1466 O 0.69765 0.33739 0.22989
 O1467 O 0.81070 0.30907 0.25682
 O1468 O 0.82055 0.27583 0.29347
 O1469 O 0.79723 0.25309 0.17975
 O1470 O 0.76338 0.21430 0.16761
 O1471 O 0.73206 0.22736 0.32810
 O1472 O 0.75749 0.27067 0.33610
 O1473 O 0.65829 0.25008 0.27099
 O1474 O 0.65372 0.27719 0.22294
 O1475 O 0.71037 0.17492 0.25100
 O1476 O 0.75834 0.16640 0.22886
 O1477 O 0.74336 0.18715 0.29874
 O1478 O 0.78573 0.17742 0.26293
 O1479 O 0.67169 0.20598 0.23803
 O1480 O 0.66385 0.24188 0.19728
 O1481 O 0.68600 0.25716 0.31334
 O1482 O 0.71616 0.30221 0.32121
 O1483 O 0.74900 0.28859 0.16554
 O1484 O 0.72603 0.24094 0.15695
 O1485 O 0.82477 0.26217 0.22182
 O1486 O 0.82774 0.23497 0.26882
 O1487 O 0.77086 0.33895 0.24439
 O1488 O 0.72331 0.34513 0.26765
 Zr1489 Zr 0.73525 0.30939 0.23884
 O1490 O 0.70586 0.28376 0.26347
 Zr1491 Zr 0.79328 0.26548 0.25589
 O1492 O 0.76636 0.23806 0.28183
 Zr1493 Zr 0.75280 0.25173 0.19474
 O1494 O 0.72442 0.22326 0.21803
 Zr1495 Zr 0.72976 0.26275 0.29817
 O1496 O 0.75887 0.29115 0.27555
 Zr1497 Zr 0.68960 0.24875 0.23676
 O1498 O 0.71606 0.27668 0.21082
 Zr1499 Zr 0.74706 0.20435 0.25508
 O1500 O 0.77673 0.23000 0.22942
 O1501 O 0.77107 0.28602 0.22031
 O1502 O 0.71117 0.22813 0.27290
 C1503 C 0.74138 0.31609 0.17037
 C1504 C 0.79850 0.33482 0.25178
 C1505 C 0.82225 0.25693 0.19371
 C1506 C 0.73808 0.19947 0.32421
 C1507 C 0.66109 0.25309 0.29938
 C1508 C 0.68268 0.18009 0.24405
 H1509 H 0.68964 0.29678 0.27123
 H1510 H 0.71674 0.20770 0.20427
 H1511 H 0.78404 0.29895 0.20853
 H1512 H 0.77882 0.22974 0.29829
 H1513 H 0.76861 0.28912 0.33213
 H1514 H 0.81028 0.26836 0.31115
 H1515 H 0.67290 0.22484 0.18629
 H1516 H 0.70728 0.25286 0.15868
 H1517 H 0.70973 0.29647 0.34137
 H1518 H 0.73494 0.34221 0.28642
 H1519 H 0.74830 0.16880 0.20919
 H1520 H 0.77640 0.20099 0.17991
 H1521 H 0.68467 0.32631 0.21568
 H1522 H 0.65152 0.29326 0.23807
 H1523 H 0.82699 0.21800 0.25452
 H1524 H 0.79543 0.18462 0.28159
 O1525 O 0.75951 0.68594 0.70023
 O1526 O 0.80344 0.67743 0.72763
 O1527 O 0.69263 0.69464 0.76775
 O1528 O 0.68228 0.72491 0.80613
 O1529 O 0.69666 0.76036 0.69591
 O1530 O 0.72846 0.80120 0.68712
 O1531 O 0.77221 0.77332 0.84354
 O1532 O 0.75011 0.72862 0.84767
 O1533 O 0.84229 0.76112 0.78221
 O1534 O 0.84584 0.73969 0.73245
 O1535 O 0.78396 0.83420 0.77072
 O1536 O 0.73218 0.84048 0.75241
 O1537 O 0.75762 0.81553 0.81891
 O1538 O 0.71248 0.82729 0.78905
 O1539 O 0.82349 0.80771 0.75266
 O1540 O 0.82970 0.77391 0.70878
 O1541 O 0.81860 0.74521 0.82333
 O1542 O 0.78898 0.69900 0.82596
 O1543 O 0.74390 0.72812 0.67610
 O1544 O 0.76488 0.77682 0.67173
 O1545 O 0.67288 0.74346 0.73656
 O1546 O 0.67248 0.76694 0.78672
 O1547 O 0.73177 0.66856 0.74820
 O1548 O 0.78211 0.66467 0.77143
 Zr1549 Zr 0.76554 0.70039 0.74463
 O1550 O 0.79560 0.72511 0.77131
 Zr1551 Zr 0.70698 0.73926 0.76939
 O1552 O 0.73470 0.76509 0.79747
 Zr1553 Zr 0.74194 0.76157 0.70928
 O1554 O 0.77081 0.78882 0.73465
 Zr1555 Zr 0.77370 0.74098 0.80936
 O1556 O 0.74419 0.71363 0.78424
 Zr1557 Zr 0.80838 0.76366 0.74902
 O1558 O 0.78100 0.73716 0.72076
 Zr1559 Zr 0.75005 0.80226 0.77428
 O1560 O 0.71952 0.77808 0.74692
 O1561 O 0.72721 0.72388 0.73089
 O1562 O 0.78866 0.77917 0.78810
 C1563 C 0.75146 0.70026 0.67665
 C1564 C 0.70526 0.67029 0.75866
 C1565 C 0.67307 0.75280 0.70956
 C1566 C 0.76502 0.80126 0.84272
 C1567 C 0.84207 0.75296 0.80959
 C1568 C 0.81077 0.83218 0.76098
 H1569 H 0.81299 0.71224 0.77684
 H1570 H 0.77626 0.80599 0.72230
 H1571 H 0.71365 0.71156 0.71837
 H1572 H 0.72336 0.77101 0.81533
 H1573 H 0.73828 0.71090 0.84195
 H1574 H 0.69428 0.72958 0.82425
 H1575 H 0.81929 0.79157 0.70010
 H1576 H 0.78385 0.76515 0.67088
 H1577 H 0.79785 0.70223 0.84614
 H1578 H 0.77813 0.64547 0.76096
 H1579 H 0.74301 0.84269 0.73357
 H1580 H 0.71519 0.81234 0.70088
 H1581 H 0.81369 0.69157 0.71461
 H1582 H 0.84763 0.72061 0.74335
 H1583 H 0.67111 0.78492 0.77403
 H1584 H 0.70310 0.81587 0.80504
 O1585 O 0.31564 0.19340 0.74073
 O1586 O 0.32420 0.22102 0.69803
 O1587 O 0.30720 0.25930 0.80982
 O1588 O 0.27815 0.29963 0.81907
 O1589 O 0.24193 0.18921 0.80047
 O1590 O 0.20020 0.18168 0.76743
 O1591 O 0.22862 0.33816 0.73111
 O1592 O 0.27433 0.34136 0.75375
 O1593 O 0.24380 0.27567 0.65815
 O1594 O 0.26207 0.22408 0.65521
 O1595 O 0.16803 0.26868 0.71250
 O1596 O 0.16058 0.24668 0.76234
 O1597 O 0.18640 0.31373 0.74330
 O1598 O 0.17473 0.28179 0.78632
 O1599 O 0.19596 0.25430 0.67301
 O1600 O 0.22423 0.20431 0.66816
 O1601 O 0.25441 0.31807 0.68424
 O1602 O 0.30227 0.32015 0.71396
 O1603 O 0.27313 0.16924 0.75256
 O1604 O 0.22423 0.16578 0.73122
 O1605 O 0.25706 0.23044 0.82616
 O1606 O 0.23579 0.28096 0.82775
 O1607 O 0.33334 0.24168 0.77027
 O1608 O 0.33714 0.26456 0.72114
 Zr1609 Zr 0.30135 0.23808 0.73565
 O1610 O 0.27680 0.26539 0.70582
 Zr1611 Zr 0.26269 0.26294 0.79344
 O1612 O 0.23668 0.29147 0.76603
 Zr1613 Zr 0.23998 0.20308 0.75571
 O1614 O 0.21265 0.22902 0.72667
 Zr1615 Zr 0.26089 0.30355 0.72849
 O1616 O 0.28832 0.27780 0.75785
 Zr1617 Zr 0.23825 0.24342 0.69104
 O1618 O 0.26452 0.21459 0.71817
 Zr1619 Zr 0.19941 0.26864 0.74848
 O1620 O 0.22374 0.24090 0.77879
 O1621 O 0.27783 0.22422 0.77249
 O1622 O 0.22293 0.28248 0.71170
 C1623 C 0.30108 0.16968 0.74634
 C1624 C 0.33166 0.25104 0.79732
 C1625 C 0.24837 0.20328 0.82478
 C1626 C 0.20074 0.33754 0.73757
 C1627 C 0.24902 0.30374 0.65985
 C1628 C 0.17154 0.26372 0.68449
 H1629 H 0.28973 0.27078 0.68913
 H1630 H 0.19527 0.21740 0.71965
 H1631 H 0.29008 0.21135 0.78598
 H1632 H 0.23082 0.30920 0.77799
 H1633 H 0.29241 0.33518 0.76537
 H1634 H 0.27263 0.31790 0.80790
 H1635 H 0.20363 0.19994 0.67422
 H1636 H 0.23324 0.16687 0.71130
 H1637 H 0.29852 0.34034 0.70560
 H1638 H 0.35635 0.25381 0.72526
 H1639 H 0.15788 0.22880 0.74952
 H1640 H 0.18901 0.19604 0.78010
 H1641 H 0.31058 0.20699 0.68763
 H1642 H 0.28123 0.23464 0.65391
 H1643 H 0.21722 0.26927 0.82774
 H1644 H 0.18529 0.29859 0.79609
 O1645 O 0.17349 0.79319 0.24641
 O1646 O 0.17004 0.76643 0.20130
 O1647 O 0.18868 0.73126 0.31390
 O1648 O 0.22094 0.69431 0.32527
 O1649 O 0.24657 0.80743 0.30817
 O1650 O 0.28568 0.82063 0.27703
 O1651 O 0.27577 0.65954 0.23731
 O1652 O 0.23104 0.65166 0.25874
 O1653 O 0.25711 0.71926 0.16577
 O1654 O 0.23549 0.76695 0.16024
 O1655 O 0.33001 0.73621 0.22685
 O1656 O 0.33492 0.75522 0.27532
 O1657 O 0.31479 0.68713 0.25454
 O1658 O 0.32026 0.72194 0.30013
 O1659 O 0.30335 0.74980 0.18542
 O1660 O 0.26658 0.79364 0.17819
 O1661 O 0.24949 0.67630 0.19091
 O1662 O 0.20135 0.67022 0.21762
 O1663 O 0.21216 0.82313 0.26004
 O1664 O 0.26149 0.83111 0.23856
 O1665 O 0.23587 0.76514 0.33321
 O1666 O 0.26139 0.71582 0.33531
 O1667 O 0.16160 0.74374 0.27233
 O1668 O 0.16175 0.72090 0.22224
 Zr1669 Zr 0.19368 0.75124 0.23981
 O1670 O 0.22188 0.72690 0.21124
 Zr1671 Zr 0.23340 0.73155 0.30002
 O1672 O 0.26232 0.70498 0.27407
 Zr1673 Zr 0.24969 0.79337 0.26350
 O1674 O 0.28078 0.76956 0.23713
 Zr1675 Zr 0.24065 0.69070 0.23466
 O1676 O 0.21030 0.71349 0.26280
 Zr1677 Zr 0.25853 0.75247 0.19923
 O1678 O 0.22790 0.77854 0.22438
 Zr1679 Zr 0.29739 0.73132 0.25945
 O1680 O 0.26971 0.75771 0.28762
 O1681 O 0.21456 0.76806 0.27817
 O1682 O 0.27704 0.71512 0.22058
 C1683 C 0.18432 0.81862 0.25370
 C1684 C 0.16382 0.73611 0.29980
 C1685 C 0.24201 0.79307 0.33223
 C1686 C 0.30305 0.66229 0.24609
 C1687 C 0.25394 0.69082 0.16694
 C1688 C 0.32806 0.74366 0.19930
 H1689 H 0.21009 0.72015 0.19362
 H1690 H 0.29707 0.78303 0.23182
 H1691 H 0.20098 0.77947 0.29140
 H1692 H 0.26947 0.68778 0.28608
 H1693 H 0.21205 0.65575 0.26913
 H1694 H 0.22612 0.67635 0.31334
 H1695 H 0.28482 0.80220 0.18741
 H1696 H 0.24909 0.83076 0.22005
 H1697 H 0.20709 0.65031 0.20945
 H1698 H 0.14138 0.72936 0.22538
 H1699 H 0.33268 0.77589 0.26789
 H1700 H 0.29891 0.80807 0.28989
 H1701 H 0.18186 0.78261 0.19267
 H1702 H 0.21519 0.75859 0.16078
 H1703 H 0.27800 0.73003 0.33756
 H1704 H 0.31375 0.70218 0.30699
 O1705 O 0.23167 0.66788 0.76487
 O1706 O 0.27811 0.66270 0.74223
 O1707 O 0.24773 0.72895 0.83728
 O1708 O 0.26430 0.77566 0.84335
 O1709 O 0.17119 0.74276 0.77752
 O1710 O 0.16615 0.76266 0.72804
 O1711 O 0.32049 0.80838 0.75792
 O1712 O 0.32765 0.78178 0.80099
 O1713 O 0.31200 0.74560 0.68823
 O1714 O 0.28019 0.70106 0.67980
 O1715 O 0.24855 0.81533 0.69420
 O1716 O 0.20506 0.82535 0.72702
 O1717 O 0.27905 0.83337 0.74057
 O1718 O 0.22948 0.84078 0.76121
 O1719 O 0.26488 0.77373 0.66969
 O1720 O 0.24382 0.72347 0.66535
 O1721 O 0.33761 0.76242 0.72909
 O1722 O 0.34100 0.73550 0.77689
 O1723 O 0.19049 0.69337 0.74750
 O1724 O 0.17979 0.72420 0.70559
 O1725 O 0.19764 0.75795 0.81851
 O1726 O 0.22849 0.80253 0.82419
 O1727 O 0.26163 0.68697 0.81179
 O1728 O 0.30628 0.68122 0.78100
 Zr1729 Zr 0.26466 0.70073 0.76741
 O1730 O 0.29224 0.72559 0.73987
 Zr1731 Zr 0.24173 0.76158 0.80396
 O1732 O 0.26843 0.78892 0.77789
 Zr1733 Zr 0.20375 0.73806 0.74421
 O1734 O 0.22884 0.76433 0.71544
 Zr1735 Zr 0.30556 0.76448 0.76257
 O1736 O 0.28070 0.73797 0.79160
 Zr1737 Zr 0.26771 0.74084 0.70264
 O1738 O 0.24069 0.71321 0.72851
 Zr1739 Zr 0.24487 0.80173 0.73891
 O1740 O 0.21668 0.77724 0.76684
 O1741 O 0.22669 0.72349 0.78216
 O1742 O 0.28301 0.77925 0.72411
 C1743 C 0.20423 0.66934 0.75581
 C1744 C 0.25541 0.70111 0.83589
 C1745 C 0.17318 0.75094 0.80506
 C1746 C 0.30667 0.83215 0.74900
 C1747 C 0.33606 0.75404 0.70168
 C1748 C 0.25663 0.80132 0.67049
 H1749 H 0.30974 0.71312 0.73421
 H1750 H 0.21613 0.77008 0.69810
 H1751 H 0.21430 0.71103 0.79502
 H1752 H 0.27478 0.80638 0.78994
 H1753 H 0.32374 0.76784 0.81743
 H1754 H 0.28146 0.78761 0.83721
 H1755 H 0.22540 0.73577 0.66260
 H1756 H 0.19329 0.71041 0.69462
 H1757 H 0.36004 0.74635 0.77534
 H1758 H 0.30264 0.66149 0.79005
 H1759 H 0.19568 0.81477 0.70990
 H1760 H 0.16625 0.78215 0.73867
 H1761 H 0.26724 0.66373 0.72283
 H1762 H 0.29775 0.69219 0.69038
 H1763 H 0.21209 0.81107 0.81163
 H1764 H 0.24081 0.84241 0.78028
 O1765 O 0.24935 0.17298 0.19175
 O1766 O 0.29462 0.16957 0.21911
 O1767 O 0.18127 0.18469 0.25288
 O1768 O 0.17012 0.21527 0.29108
 O1769 O 0.18552 0.24716 0.17954
 O1770 O 0.21771 0.28582 0.16695
 O1771 O 0.25750 0.27153 0.32729
 O1772 O 0.23518 0.22703 0.33443
 O1773 O 0.32862 0.25607 0.26932
 O1774 O 0.33367 0.23302 0.22005
 O1775 O 0.26768 0.32741 0.25279
 O1776 O 0.21756 0.33140 0.23158
 O1777 O 0.23935 0.31081 0.30017
 O1778 O 0.19463 0.31782 0.26609
 O1779 O 0.30920 0.30143 0.23875
 O1780 O 0.31804 0.26725 0.19571
 O1781 O 0.30393 0.24284 0.31084
 O1782 O 0.27541 0.19638 0.31579
 O1783 O 0.23401 0.21216 0.16286
 O1784 O 0.25539 0.26120 0.15576
 O1785 O 0.16108 0.23261 0.22075
 O1786 O 0.15851 0.25663 0.26958
 O1787 O 0.22336 0.15888 0.24007
 O1788 O 0.27315 0.15874 0.26364
 Zr1789 Zr 0.25541 0.19175 0.23419
 O1790 O 0.28357 0.21935 0.25978
 Zr1791 Zr 0.19455 0.22974 0.25419
 O1792 O 0.22018 0.25847 0.28136
 Zr1793 Zr 0.23082 0.24878 0.19332
 O1794 O 0.25741 0.27919 0.21794
 Zr1795 Zr 0.25969 0.23673 0.29590
 O1796 O 0.23209 0.20662 0.27201
 Zr1797 Zr 0.29550 0.25679 0.23523
 O1798 O 0.27035 0.22710 0.20803
 Zr1799 Zr 0.23479 0.29447 0.25600
 O1800 O 0.20661 0.26715 0.22918
 O1801 O 0.21661 0.21258 0.21749
 O1802 O 0.27377 0.27392 0.27250
 C1803 C 0.24131 0.18438 0.16670
 C1804 C 0.19579 0.16027 0.24733
 C1805 C 0.16160 0.24112 0.19351
 C1806 C 0.24820 0.29874 0.32478
 C1807 C 0.32770 0.24969 0.29718
 C1808 C 0.29536 0.32579 0.24565
 H1809 H 0.30120 0.20743 0.26655
 H1810 H 0.26275 0.29591 0.20496
 H1811 H 0.20344 0.19929 0.20559
 H1812 H 0.20807 0.26516 0.29845
 H1813 H 0.22432 0.20836 0.33005
 H1814 H 0.18036 0.22306 0.30918
 H1815 H 0.30658 0.28343 0.18557
 H1816 H 0.27456 0.24983 0.15680
 H1817 H 0.28328 0.20117 0.33606
 H1818 H 0.27064 0.13872 0.25431
 H1819 H 0.22866 0.33235 0.21277
 H1820 H 0.20557 0.29908 0.17991
 H1821 H 0.30328 0.18230 0.20366
 H1822 H 0.33553 0.21437 0.23165
 H1823 H 0.15704 0.27428 0.25647
 H1824 H 0.18661 0.30911 0.28441
 O1825 O 0.81107 0.69213 0.25871
 O1826 O 0.82356 0.72082 0.21983
 O1827 O 0.79727 0.75612 0.33037
 O1828 O 0.76946 0.79732 0.33786
 O1829 O 0.73384 0.68741 0.31607
 O1830 O 0.69519 0.67880 0.28107
 O1831 O 0.72598 0.83703 0.24470
 O1832 O 0.76896 0.84013 0.27197
 O1833 O 0.74000 0.77590 0.17517
 O1834 O 0.76005 0.72613 0.17056
 O1835 O 0.66422 0.76578 0.22740
 O1836 O 0.65386 0.74926 0.27483
 O1837 O 0.68278 0.81351 0.25513
 O1838 O 0.67055 0.78175 0.30116
 O1839 O 0.69161 0.74720 0.18919
 O1840 O 0.72616 0.70206 0.18431
 O1841 O 0.75589 0.81650 0.20139
 O1842 O 0.80051 0.81796 0.23494
 O1843 O 0.76858 0.66785 0.27030
 O1844 O 0.72000 0.66533 0.24487
 O1845 O 0.74788 0.72839 0.34274
 O1846 O 0.72548 0.77966 0.34282
 O1847 O 0.82684 0.73920 0.29295
 O1848 O 0.83330 0.76438 0.24352
 Zr1849 Zr 0.79724 0.73698 0.25541
 O1850 O 0.77390 0.76378 0.22405
 Zr1851 Zr 0.75486 0.76135 0.31074
 O1852 O 0.73134 0.79077 0.28217
 Zr1853 Zr 0.73480 0.70161 0.27150
 O1854 O 0.70871 0.72825 0.24217
 Zr1855 Zr 0.75766 0.80213 0.24590
 O1856 O 0.78297 0.77646 0.27710
 Zr1857 Zr 0.73547 0.74244 0.20731
 O1858 O 0.76118 0.71375 0.23547
 Zr1859 Zr 0.69489 0.76831 0.26316
 O1860 O 0.71695 0.73931 0.29393
 O1861 O 0.77146 0.72273 0.29045
 O1862 O 0.71987 0.78181 0.22718
 C1863 C 0.79657 0.66835 0.26402
 C1864 C 0.82248 0.74734 0.32018
 C1865 C 0.73943 0.70116 0.34072
 C1866 C 0.69769 0.83692 0.24893
 C1867 C 0.74872 0.80308 0.17697
 C1868 C 0.66682 0.75620 0.20054
 H1869 H 0.78758 0.76909 0.20796
 H1870 H 0.69155 0.71638 0.23499
 H1871 H 0.78280 0.70943 0.30427
 H1872 H 0.72509 0.80879 0.29352
 H1873 H 0.78612 0.83409 0.28495
 H1874 H 0.76535 0.81580 0.32649
 H1875 H 0.70718 0.69442 0.19193
 H1876 H 0.73349 0.66385 0.22767
 H1877 H 0.79796 0.83840 0.22681
 H1878 H 0.85234 0.75471 0.25030
 H1879 H 0.65462 0.72813 0.26822
 H1880 H 0.68286 0.69272 0.29315
 H1881 H 0.80973 0.71061 0.20577
 H1882 H 0.77973 0.73586 0.17118
 H1883 H 0.70782 0.76666 0.34314
 H1884 H 0.67800 0.80141 0.30791
 O1885 O 0.69519 0.24037 0.81077
 O1886 O 0.72366 0.19774 0.81646
 O1887 O 0.76118 0.31004 0.80754
 O1888 O 0.79964 0.32165 0.77954
 O1889 O 0.68798 0.30844 0.74317
 O1890 O 0.67844 0.27966 0.69929
 O1891 O 0.83665 0.23510 0.72334
 O1892 O 0.84163 0.25485 0.77023
 O1893 O 0.77557 0.16396 0.73021
 O1894 O 0.72566 0.15934 0.74964
 O1895 O 0.76299 0.22721 0.66155
 O1896 O 0.74414 0.27754 0.65857
 O1897 O 0.81079 0.25186 0.68246
 O1898 O 0.77925 0.29915 0.67612
 O1899 O 0.74662 0.18557 0.68424
 O1900 O 0.70205 0.17717 0.71602
 O1901 O 0.81774 0.18776 0.74533
 O1902 O 0.82119 0.21305 0.79518
 O1903 O 0.66949 0.25847 0.77033
 O1904 O 0.66432 0.24108 0.71968
 O1905 O 0.72986 0.33192 0.75962
 O1906 O 0.78001 0.33364 0.73796
 O1907 O 0.74436 0.26878 0.83070
 O1908 O 0.76789 0.21823 0.82998
 Zr1909 Zr 0.73954 0.23680 0.79618
 O1910 O 0.76568 0.20849 0.76894
 Zr1911 Zr 0.76273 0.29774 0.76232
 O1912 O 0.79066 0.27199 0.73453
 Zr1913 Zr 0.70194 0.26358 0.73737
 O1914 O 0.72704 0.23693 0.70764
 Zr1915 Zr 0.80325 0.23168 0.75519
 O1916 O 0.77864 0.25931 0.78478
 Zr1917 Zr 0.74235 0.19799 0.72933
 O1918 O 0.71467 0.22330 0.75818
 Zr1919 Zr 0.76635 0.25890 0.69628
 O1920 O 0.73902 0.28734 0.72275
 O1921 O 0.72468 0.27627 0.77609
 O1922 O 0.78089 0.21911 0.71591
 C1923 C 0.67089 0.24853 0.79717
 C1924 C 0.75383 0.29575 0.83087
 C1925 C 0.70223 0.33192 0.75124
 C1926 C 0.83500 0.24326 0.69597
 C1927 C 0.80368 0.16438 0.73674
 C1928 C 0.75466 0.19990 0.66118
 H1929 H 0.77165 0.19035 0.78016
 H1930 H 0.71446 0.23236 0.68989
 H1931 H 0.71225 0.28884 0.78946
 H1932 H 0.80840 0.28374 0.72970
 H1933 H 0.83629 0.26483 0.78924
 H1934 H 0.81776 0.30988 0.77446
 H1935 H 0.69364 0.18811 0.69865
 H1936 H 0.66430 0.22120 0.72917
 H1937 H 0.84136 0.20471 0.79094
 H1938 H 0.75851 0.22152 0.84964
 H1939 H 0.72411 0.26858 0.65707
 H1940 H 0.69189 0.29369 0.68945
 H1941 H 0.71115 0.18740 0.80129
 H1942 H 0.73708 0.15618 0.76848
 H1943 H 0.76706 0.33613 0.71998
 H1944 H 0.79812 0.30560 0.68586
 N1945 N 0.05841 1.00645 1.12154
 N1946 N 0.07073 1.00556 1.09615
 N1947 N 0.55422 0.51319 0.63895
 N1948 N 0.56394 0.50247 0.61456
 N1949 N 0.44439 -0.00960 0.62791
 N1950 N 0.43380 -0.00044 0.60302
 N1951 N -0.05278 0.50380 1.14270
 N1952 N -0.06608 0.50496 1.11735
 N1953 N -0.08180 0.48900 0.38087
 N1954 N -0.08642 0.48245 0.40695
 N1955 N 0.44351 1.00703 -0.13730
 N1956 N 0.42990 1.00327 -0.11300
 N1957 N 0.56118 0.49424 -0.13094
 N1958 N 0.57396 0.49791 -0.10561
 N1959 N 0.06065 -0.01948 0.35644
 N1960 N 0.07212 -0.00980 0.38080
 N1961 N 0.12736 1.06715 1.00237
 N1962 N 0.10281 1.07767 0.99171
 N1963 N 0.62951 0.55469 0.51519
 N1964 N 0.60409 0.56701 0.51037
 N1965 N 0.64227 0.44284 -0.01077
 N1966 N 0.61858 0.43283 0.00051
 N1967 N 0.14165 -0.06020 0.49510
 N1968 N 0.11665 -0.07327 0.49592
 N1969 N 0.37499 -0.06048 0.49180
 N1970 N 0.40073 -0.07292 0.49400
 N1971 N -0.12595 0.43948 1.01419
 N1972 N -0.09978 0.42789 1.01304
 N1973 N -0.14267 0.55429 0.49964
 N1974 N -0.11811 0.56481 0.50932
 N1975 N 0.36047 1.05828 -0.01364
 N1976 N 0.38583 1.07058 -0.01081
 N1977 N 0.00002 1.14292 1.04913
 N1978 N -0.00192 1.11758 1.06162
 N1979 N 0.51001 0.63196 0.56335
 N1980 N 0.49807 0.60850 0.57315
 N1981 N -0.02084 0.62491 0.44203
 N1982 N -0.01227 0.59935 0.43244
 N1983 N 0.49284 1.13407 -0.05794
 N1984 N 0.49588 1.10841 -0.07006
 N1985 N 0.51962 0.36319 -0.05773
 N1986 N 0.51057 0.38818 -0.06809
 N1987 N 0.00888 -0.14278 0.44239
 N1988 N 0.00668 -0.11801 0.42871
 N1989 N 0.50226 -0.13683 0.55541
 N1990 N 0.50581 -0.11129 0.56753
 N1991 N 0.00594 0.38274 1.08610
 N1992 N 0.01412 0.40868 1.09004
 N1993 N 0.74540 0.33063 0.12035
 N1994 N 0.73790 0.33615 0.14607
 N1995 N 0.26512 0.80524 0.61915
 N1996 N 0.25579 0.81737 0.64310
 N1997 N 0.74453 0.69693 0.62474
 N1998 N 0.75054 0.68392 0.64928
 N1999 N 0.24111 0.16988 0.11599
 N2000 N 0.23884 0.16367 0.14249
 N2001 N 0.24850 0.20097 0.87707
 N2002 N 0.24595 0.18750 0.85205
 N2003 N 0.74680 0.69541 0.39215
 N2004 N 0.73657 0.68491 0.36764
 N2005 N 0.24335 0.79681 0.38482
 N2006 N 0.24459 0.80942 0.35958
 N2007 N 0.75176 0.29867 0.88343
 N2008 N 0.75648 0.31125 0.85869
 N2009 N 0.80542 0.38662 0.25154
 N2010 N 0.81698 0.36052 0.25388
 N2011 N 0.31160 0.88298 0.73813
 N2012 N 0.32293 0.85923 0.74930
 N2013 N 0.16771 0.86888 0.25154
 N2014 N 0.16298 0.84243 0.25670
 N2015 N 0.69908 0.38452 0.75527
 N2016 N 0.68606 0.35974 0.75085
 N2017 N 0.69817 0.61914 0.74866
 N2018 N 0.68864 0.64342 0.76040
 N2019 N 0.19390 0.10798 0.24521
 N2020 N 0.18007 0.13289 0.24848
 N2021 N 0.30438 0.11714 0.74825
 N2022 N 0.31730 0.14204 0.74552
 N2023 N 0.80267 0.61603 0.27058
 N2024 N 0.81298 0.64078 0.26207
 N2025 N 0.87448 0.25909 0.18937
 N2026 N 0.84900 0.25569 0.17674
 N2027 N 0.38809 0.75830 0.69795
 N2028 N 0.36298 0.75350 0.68512
 N2029 N 0.38389 0.24737 0.80234
 N2030 N 0.35881 0.25235 0.81459
 N2031 N 0.87309 0.74486 0.33570
 N2032 N 0.84635 0.74560 0.34161
 N2033 N 0.11145 0.73622 0.30305
 N2034 N 0.13691 0.73358 0.31603
 N2035 N 0.61889 0.25587 0.80227
 N2036 N 0.64366 0.24600 0.81301
 N2037 N 0.62139 0.74424 0.70326
 N2038 N 0.64540 0.75485 0.69330
 N2039 N 0.10909 0.23795 0.18937
 N2040 N 0.13370 0.24530 0.17794
 N2041 N -0.07761 1.00890 0.86093
 N2042 N -0.08475 1.01111 0.88723
 N2043 N 0.44348 0.48900 0.36706
 N2044 N 0.43061 0.49576 0.39131
 N2045 N 0.58268 0.01017 0.37391
 N2046 N 0.58683 0.01378 0.40088
 N2047 N 0.05418 0.51245 0.87298
 N2048 N 0.06531 0.50364 0.89777
 N2049 N 0.05605 0.50135 0.64018
 N2050 N 0.06814 0.50391 0.61488
 N2051 N 0.54652 1.00078 0.13766
 N2052 N 0.55900 1.00079 0.11241
 N2053 N 0.44859 0.50154 0.13577
 N2054 N 0.43865 0.49196 0.11077
 N2055 N -0.06542 0.01361 0.61830
 N2056 N -0.06142 0.02593 0.59431
 N2057 N -0.13959 0.95321 0.99713
 N2058 N -0.11368 0.94104 0.99758
 N2059 N 0.36163 0.44543 0.48936
 N2060 N 0.38569 0.43444 0.50052
 N2061 N 0.36569 0.54536 0.00377
 N2062 N 0.39035 0.55872 0.00086
 N2063 N -0.12789 0.05398 0.48758
 N2064 N -0.10265 0.06644 0.49043
 N2065 N 0.64104 0.05416 0.50078
 N2066 N 0.61546 0.06697 0.50187
 N2067 N 0.12438 0.58392 0.99614
 N2068 N 0.09753 0.59012 0.99775
 N2069 N 0.12872 0.44389 0.50774
 N2070 N 0.10404 0.43022 0.50827
 N2071 N 0.63018 0.94324 0.01479
 N2072 N 0.60625 0.93245 0.00374
 N2073 N -0.00849 0.87749 0.92295
 N2074 N -0.01445 0.90347 0.91583
 N2075 N 0.48652 0.36383 0.44765
 N2076 N 0.49736 0.38784 0.43788
 N2077 N 0.00915 0.37090 0.58454
 N2078 N 0.01370 0.39763 0.58910
 N2079 N 0.50266 0.86596 0.05595
 N2080 N 0.49251 0.89065 0.06623
 N2081 N 0.49405 0.63214 0.05669
 N2082 N 0.49914 0.60722 0.06947
 N2083 N -0.00039 0.13472 0.54130
 N2084 N 0.00344 0.10942 0.55366
 N2085 N 0.51000 0.13213 0.44489
 N2086 N 0.50925 0.10679 0.43182
 N2087 N -0.01081 0.63225 0.93145
 N2088 N -0.02049 0.60675 0.92869
 N2089 N 0.25219 0.69559 0.88816
 N2090 N 0.25667 0.68411 0.86258
 N2091 N 0.73772 0.19327 0.37586
 N2092 N 0.74032 0.18127 0.35017
 N2093 N 0.25715 0.30695 0.37589
 N2094 N 0.24644 0.31653 0.35124
 N2095 N 0.76565 0.80499 0.89526
 N2096 N 0.76370 0.81768 0.87004
 N2097 N 0.74174 0.80895 0.12527
 N2098 N 0.75120 0.81947 0.15006
 N2099 N 0.24588 0.30690 0.60776
 N2100 N 0.24905 0.32013 0.63281
 N2101 N 0.76195 0.19611 0.60924
 N2102 N 0.75352 0.18434 0.63332
 N2103 N 0.24528 0.68561 0.11550
 N2104 N 0.25477 0.67413 0.13980
 N2105 N 0.19723 0.61852 0.76659
 N2106 N 0.18750 0.64261 0.75482
 N2107 N 0.66698 0.12957 0.24658
 N2108 N 0.66166 0.15639 0.24279
 N2109 N 0.80838 0.11180 0.73202
 N2110 N 0.82069 0.13714 0.73480
 N2111 N 0.31103 0.61124 0.23711
 N2112 N 0.32110 0.63568 0.24763
 N2113 N 0.30033 0.37839 0.24914
 N2114 N 0.31220 0.35262 0.24516
 N2115 N 0.81789 0.88440 0.76597
 N2116 N 0.82730 0.85883 0.75730
 N2117 N 0.69512 0.88942 0.24577
 N2118 N 0.68161 0.86469 0.24724
 N2119 N 0.19737 0.39018 0.74068
 N2120 N 0.18451 0.36506 0.74023
 N2121 N 0.12080 0.74829 0.81136
 N2122 N 0.14685 0.75196 0.82250
 N2123 N 0.60924 0.24882 0.30420
 N2124 N 0.63478 0.25197 0.31666
 N2125 N 0.61522 0.76365 0.19249
 N2126 N 0.64014 0.75404 0.18261
 N2127 N 0.12196 0.26376 0.66585
 N2128 N 0.14810 0.27152 0.66389
 N2129 N 0.88741 0.23988 0.69170
 N2130 N 0.86179 0.24331 0.67927
 N2131 N 0.38068 0.74297 0.19561
 N2132 N 0.35505 0.74564 0.18291
 N2133 N 0.37932 0.25827 0.30395
 N2134 N 0.35496 0.24881 0.31414
 N2135 N 0.89334 0.76351 0.81665
 N2136 N 0.86976 0.75141 0.82588
   
