data_POSCAR
  _audit_creation_date              2014-09-24
  _audit_creation_method            'ToBaCCo'
  _symmetry_space_group_name_H-M    'P1'
  _symmetry_Int_Tables_number       1
  _symmetry_cell_setting            triclinic
  loop_
  _symmetry_equiv_pos_as_xyz
 x,y,z
_cell_length_a 39.4756
_cell_length_b 39.4938
_cell_length_c 39.4584
_cell_angle_alpha 90.036300
_cell_angle_beta 90.037000
_cell_angle_gamma 89.970500
loop_
  _atom_site_label
  _atom_site_type_symbol
  _atom_site_fract_x
  _atom_site_fract_y
  _atom_site_fract_z
C1 C 0.12612 0.00029 0.25110
 C2 C 0.37457 -0.00031 0.75033
 C3 C 0.87442 0.50075 0.24899
 C4 C 0.62564 0.49882 0.75086
 C5 C 0.25009 0.12513 1.00144
 C6 C 0.74915 0.37465 0.99700
 C7 C 0.24931 0.87514 0.49990
 C8 C 0.74903 0.62518 0.50127
 C9 C 0.00157 0.24987 0.12482
 C10 C 0.00016 0.75151 0.37460
 C11 C 0.50162 0.24991 0.87456
 C12 C 0.49956 0.74975 0.62538
 C13 C 0.87524 0.99881 0.75101
 C14 C 0.37518 0.50021 0.25055
 C15 C 0.62508 1.00089 0.25043
 C16 C 0.12523 0.49956 0.74875
 C17 C 0.75005 0.87541 0.00097
 C18 C 0.24924 0.37531 0.50144
 C19 C 0.24919 0.62425 -0.00035
 C20 C 0.74875 0.12481 0.49678
 C21 C 0.99980 0.74989 0.87563
 C22 C 0.50167 0.24960 0.37566
 C23 C 1.00163 0.25158 0.62431
 C24 C 0.49989 0.74989 0.12449
 O25 O -0.01627 0.97818 0.90484
 O26 O 0.03931 0.99473 0.90401
 O27 O -0.01862 0.90308 0.98544
 O28 O -0.00905 0.90089 1.04050
 O29 O -0.09581 0.98308 0.98100
 O30 O -0.09556 1.04103 0.99537
 O31 O 0.06648 0.99336 1.07576
 O32 O 0.07086 0.94125 1.05194
 O33 O 0.07593 1.06381 0.99534
 O34 O 0.04761 1.07249 0.94157
 O35 O -0.00441 1.07479 1.06557
 O36 O -0.05750 1.04709 1.07516
 O37 O 0.01964 1.02035 1.09607
 O38 O -0.04168 1.00446 1.09629
 O39 O 0.02186 1.09499 1.01846
 O40 O 0.00543 1.09435 0.95772
 O41 O 0.09614 1.01734 1.02281
 O42 O 0.09450 0.95943 0.99915
 O43 O -0.06270 1.00613 0.92485
 O44 O -0.07042 1.05937 0.95338
 O45 O -0.07577 0.93615 1.00777
 O46 O -0.04622 0.93157 1.06292
 O47 O 0.00661 0.92312 0.93764
 O48 O 0.06211 0.95171 0.93438
 Zr49 Zr 0.01532 0.97475 0.94764
 O50 O 0.04748 1.00589 0.97659
 Zr51 Zr -0.02411 0.94619 1.01629
 O52 O 0.00736 0.97526 1.04797
 Zr53 Zr -0.05297 1.01445 0.97672
 O54 O -0.02360 1.04662 1.00750
 Zr55 Zr 0.05428 0.98441 1.02473
 O56 O 0.02446 0.95134 0.99479
 Zr57 Zr 0.02459 1.05291 0.98586
 O58 O -0.00603 1.02334 0.95329
 Zr59 Zr -0.01396 1.02355 1.05455
 O60 O -0.04739 0.99326 1.02535
 O61 O -0.03247 0.96665 0.96852
 O62 O 0.03380 1.03242 1.03374
 C63 C -0.04528 0.99241 0.90101
 C64 C -0.00573 0.89923 0.95585
 C65 C -0.09965 0.95389 0.99467
 C66 C 0.04921 1.00720 1.09961
 C67 C 0.09972 1.04671 1.00942
 C68 C 0.00908 1.09859 1.04810
 H69 H 0.06932 1.00825 0.96457
 H70 H -0.03571 1.06838 1.01006
 H71 H -0.04697 0.95209 0.95411
 H72 H 0.01032 0.96314 1.06968
 H73 H 0.06525 0.92129 1.03781
 H74 H 0.01235 0.90592 1.05249
 H75 H -0.01554 1.10223 0.96894
 H76 H -0.05244 1.06667 0.93751
 H77 H 0.11492 0.96035 1.01379
 H78 H 0.05899 0.93829 0.91333
 H79 H -0.06634 1.06300 1.05795
 H80 H -0.09892 1.03338 1.01901
 H81 H 0.03200 1.01861 0.90201
 H82 H 0.06475 1.05591 0.93388
 H83 H -0.06438 0.94812 1.06794
 H84 H -0.03008 0.98379 1.10441
 O85 O 0.48276 0.47888 0.40465
 O86 O 0.53819 0.49563 0.40382
 O87 O 0.48106 0.40304 0.48469
 O88 O 0.49028 0.40050 0.53975
 O89 O 0.40330 0.48293 0.48102
 O90 O 0.40338 0.54070 0.49576
 O91 O 0.56577 0.49294 0.57549
 O92 O 0.57023 0.44107 0.55130
 O93 O 0.57478 0.56409 0.49569
 O94 O 0.54641 0.57321 0.44213
 O95 O 0.49441 0.57427 0.56612
 O96 O 0.44152 0.54615 0.57562
 O97 O 0.51889 0.51962 0.59613
 O98 O 0.45766 0.50351 0.59642
 O99 O 0.52054 0.59494 0.51914
 O100 O 0.50407 0.59462 0.45837
 O101 O 0.59522 0.51742 0.52266
 O102 O 0.59369 0.45971 0.49857
 O103 O 0.43629 0.50654 0.42495
 O104 O 0.42841 0.55949 0.45395
 O105 O 0.42353 0.43582 0.50730
 O106 O 0.45323 0.43087 0.56237
 O107 O 0.50608 0.42358 0.43699
 O108 O 0.56133 0.45257 0.43380
 Zr109 Zr 0.51442 0.47520 0.44736
 O110 O 0.54650 0.50624 0.47651
 Zr111 Zr 0.47520 0.44593 0.51582
 O112 O 0.50661 0.47487 0.54768
 Zr113 Zr 0.44605 0.51442 0.47688
 O114 O 0.47534 0.54645 0.50789
 Zr115 Zr 0.55346 0.48437 0.52445
 O116 O 0.52371 0.45144 0.49430
 Zr117 Zr 0.52346 0.55310 0.48622
 O118 O 0.49292 0.52367 0.45346
 Zr119 Zr 0.48516 0.52303 0.55473
 O120 O 0.45179 0.49286 0.52532
 O121 O 0.46668 0.46674 0.46822
 O122 O 0.53284 0.53225 0.53391
 C123 C 0.45373 0.49311 0.40097
 C124 C 0.49403 0.39946 0.45509
 C125 C 0.39956 0.45364 0.49449
 C126 C 0.54851 0.50653 0.59949
 C127 C 0.59866 0.54691 0.50952
 C128 C 0.50773 0.59828 0.54880
 H129 H 0.56831 0.50878 0.46446
 H130 H 0.46313 0.56813 0.51063
 H131 H 0.45223 0.45221 0.45372
 H132 H 0.50967 0.46257 0.56928
 H133 H 0.56467 0.42120 0.53703
 H134 H 0.51186 0.40539 0.55147
 H135 H 0.48312 0.60239 0.46972
 H136 H 0.44632 0.56696 0.43809
 H137 H 0.61414 0.46055 0.51317
 H138 H 0.55826 0.43929 0.41265
 H139 H 0.43260 0.56220 0.55858
 H140 H 0.40012 0.53292 0.51938
 H141 H 0.53086 0.51954 0.40209
 H142 H 0.56347 0.55668 0.43417
 H143 H 0.43503 0.44733 0.56757
 H144 H 0.46932 0.48278 0.60429
 O145 O 0.42377 -0.06507 0.49362
 O146 O 0.44912 -0.07116 0.44170
 O147 O 0.50770 -0.07628 0.56381
 O148 O 0.55566 -0.05009 0.57600
 O149 O 0.43524 0.00694 0.57589
 O150 O 0.42751 0.05914 0.54762
 O151 O 0.59548 0.01523 0.47783
 O152 O 0.59648 -0.03903 0.49634
 O153 O 0.51693 0.02074 0.40449
 O154 O 0.45763 0.00656 0.40343
 O155 O 0.52133 0.09487 0.48265
 O156 O 0.50774 0.09628 0.54142
 O157 O 0.57553 0.06242 0.50447
 O158 O 0.54629 0.07035 0.56051
 O159 O 0.49421 0.07501 0.43582
 O160 O 0.43868 0.04553 0.42876
 O161 O 0.56409 -0.00559 0.42472
 O162 O 0.56389 -0.06250 0.45087
 O163 O 0.40354 -0.01754 0.51949
 O164 O 0.40383 0.04129 0.50456
 O165 O 0.48189 -0.02017 0.59617
 O166 O 0.54181 -0.00214 0.59422
 O167 O 0.47923 -0.09632 0.51780
 O168 O 0.49894 -0.09423 0.45854
 Zr169 Zr 0.47520 -0.05410 0.48543
 O170 O 0.50533 -0.02460 0.45289
 Zr171 Zr 0.51419 -0.02439 0.55394
 O172 O 0.54667 0.00530 0.52399
 Zr173 Zr 0.44591 0.01460 0.52425
 O174 O 0.47552 0.04682 0.49384
 Zr175 Zr 0.55260 -0.01610 0.47566
 O176 O 0.52367 -0.04836 0.50719
 Zr177 Zr 0.48435 0.02380 0.44665
 O178 O 0.45182 -0.00706 0.47596
 Zr179 Zr 0.52408 0.05260 0.51498
 O180 O 0.49275 0.02404 0.54793
 O181 O 0.46663 -0.03299 0.53308
 O182 O 0.53245 0.03211 0.46696
 C183 C 0.39982 -0.04703 0.50626
 C184 C 0.49382 -0.10013 0.54660
 C185 C 0.45276 -0.00628 0.59985
 C186 C 0.59922 0.04486 0.49069
 C187 C 0.54661 0.00796 0.40091
 C188 C 0.50815 0.09866 0.45318
 H189 H 0.50779 -0.03665 0.43105
 H190 H 0.46362 0.06872 0.49158
 H191 H 0.45220 -0.04745 0.54761
 H192 H 0.56874 0.00734 0.53567
 H193 H 0.58900 -0.06032 0.50725
 H194 H 0.57525 -0.04644 0.56086
 H195 H 0.43314 0.06501 0.44354
 H196 H 0.39973 0.03226 0.48151
 H197 H 0.58620 -0.06016 0.43955
 H198 H 0.48546 -0.11523 0.46150
 H199 H 0.48435 0.10127 0.53395
 H200 H 0.44590 0.06751 0.56249
 H201 H 0.43570 -0.05177 0.43318
 H202 H 0.46631 -0.01624 0.39771
 H203 H 0.53011 0.01922 0.60020
 H204 H 0.56600 0.05576 0.56569
 O205 O -0.07558 0.43393 0.99174
 O206 O -0.04970 0.42792 0.94007
 O207 O 0.00779 0.42368 1.06275
 O208 O 0.05542 0.45024 1.07526
 O209 O -0.06541 0.50639 1.07392
 O210 O -0.07339 0.55834 1.04535
 O211 O 0.09570 0.51561 0.97737
 O212 O 0.09695 0.46141 0.99579
 O213 O 0.01762 0.52020 0.90312
 O214 O -0.04147 0.50570 0.90162
 O215 O 0.02083 0.59465 0.98122
 O216 O 0.00679 0.59623 1.03968
 O217 O 0.07513 0.56267 1.00378
 O218 O 0.04508 0.57044 1.05945
 O219 O -0.00576 0.57449 0.93422
 O220 O -0.06098 0.54450 0.92673
 O221 O 0.06484 0.49435 0.92378
 O222 O 0.06491 0.43755 0.95019
 O223 O -0.09641 0.48136 1.01731
 O224 O -0.09646 0.54016 1.00212
 O225 O -0.01870 0.47974 1.09468
 O226 O 0.04114 0.49813 1.09315
 O227 O -0.02005 0.40324 1.01653
 O228 O 0.00016 0.40531 0.95744
 Zr229 Zr -0.02415 0.44532 0.98399
 O230 O 0.00602 0.47499 0.95161
 Zr231 Zr 0.01398 0.47557 1.05273
 O232 O 0.04650 0.50540 1.02297
 Zr233 Zr -0.05436 0.51389 1.02233
 O234 O -0.02471 0.54626 0.99211
 Zr235 Zr 0.05305 0.48396 0.97472
 O236 O 0.02408 0.45156 1.00612
 Zr237 Zr -0.01527 0.52320 0.94505
 O238 O -0.04782 0.49214 0.97415
 Zr239 Zr 0.02362 0.55249 1.01366
 O240 O -0.00780 0.52379 1.04639
 O241 O -0.03333 0.46650 1.03149
 O242 O 0.03260 0.53199 0.96573
 C243 C -0.09979 0.45180 1.00412
 C244 C -0.00570 0.39966 1.04549
 C245 C -0.04796 0.49345 1.09810
 C246 C 0.09911 0.54524 0.99033
 C247 C 0.04741 0.50762 0.89976
 C248 C 0.00782 0.59829 0.95167
 H249 H 0.00875 0.46289 0.92983
 H250 H -0.03677 0.56806 0.98969
 H251 H -0.04777 0.45198 1.04596
 H252 H 0.06843 0.50762 1.03486
 H253 H 0.08954 0.44013 1.00676
 H254 H 0.07507 0.45384 1.06019
 H255 H -0.06681 0.56397 0.94141
 H256 H -0.10032 0.53095 0.97911
 H257 H 0.08727 0.44004 0.93901
 H258 H -0.01318 0.38421 0.96034
 H259 H -0.01668 0.60084 1.03222
 H260 H -0.05520 0.56696 1.06032
 H261 H -0.06324 0.44716 0.93140
 H262 H -0.03272 0.48286 0.89615
 H263 H 0.02917 0.51936 1.09908
 H264 H 0.06495 0.55613 1.06481
 O265 O -0.06538 0.49491 0.42368
 O266 O -0.07127 0.44299 0.44903
 O267 O -0.07610 0.56495 0.50774
 O268 O -0.04962 0.57705 0.55564
 O269 O 0.00676 0.57702 0.43491
 O270 O 0.05892 0.54875 0.42691
 O271 O 0.01583 0.47898 0.59519
 O272 O -0.03844 0.49732 0.59635
 O273 O 0.02098 0.40564 0.51632
 O274 O 0.00641 0.40476 0.45705
 O275 O 0.09517 0.48353 0.52064
 O276 O 0.09672 0.54213 0.50720
 O277 O 0.06294 0.50558 0.57509
 O278 O 0.07077 0.56152 0.54557
 O279 O 0.07511 0.43687 0.49346
 O280 O 0.04540 0.42997 0.43805
 O281 O -0.00501 0.42580 0.56370
 O282 O -0.06200 0.45198 0.56379
 O283 O -0.01793 0.52071 0.40325
 O284 O 0.04099 0.50572 0.40331
 O285 O -0.02011 0.59725 0.48173
 O286 O -0.00174 0.59522 0.54159
 O287 O -0.09628 0.51904 0.47928
 O288 O -0.09413 0.45986 0.49897
 Zr289 Zr -0.05409 0.48666 0.47507
 O290 O -0.02443 0.45407 0.50505
 Zr291 Zr -0.02414 0.55503 0.51402
 O292 O 0.00572 0.52502 0.54636
 Zr293 Zr 0.01448 0.52541 0.44550
 O294 O 0.04687 0.49495 0.47498
 Zr295 Zr -0.01565 0.47674 0.55234
 O296 O -0.04807 0.50833 0.52356
 Zr297 Zr 0.02386 0.44783 0.48383
 O298 O -0.00717 0.47718 0.45145
 Zr299 Zr 0.05293 0.51597 0.52358
 O300 O 0.02420 0.54896 0.49237
 O301 O -0.03301 0.53425 0.46645
 O302 O 0.03247 0.46800 0.53197
 C303 C -0.04747 0.50754 0.39964
 C304 C -0.10002 0.54780 0.49393
 C305 C -0.00638 0.60096 0.45252
 C306 C 0.04544 0.49189 0.59888
 C307 C 0.00841 0.40202 0.54608
 C308 C 0.09885 0.45410 0.50738
 H309 H -0.03647 0.43226 0.50753
 H310 H 0.06872 0.49267 0.46299
 H311 H -0.04756 0.54880 0.45209
 H312 H 0.00786 0.53669 0.56843
 H313 H -0.05975 0.50829 0.58893
 H314 H -0.04592 0.56185 0.57518
 H315 H 0.06482 0.44476 0.43241
 H316 H 0.03187 0.48274 0.39916
 H317 H -0.05952 0.44058 0.58604
 H318 H -0.11520 0.46281 0.48554
 H319 H 0.10136 0.53496 0.48363
 H320 H 0.06743 0.56352 0.44532
 H321 H -0.05198 0.43453 0.43543
 H322 H -0.01630 0.39900 0.46589
 H323 H 0.01953 0.60123 0.52978
 H324 H 0.05634 0.56669 0.56540
 O325 O 0.52065 0.90400 0.01722
 O326 O 0.50381 0.90308 -0.03828
 O327 O 0.59632 0.98402 0.01915
 O328 O 0.59888 1.03899 0.00966
 O329 O 0.51654 0.98036 0.09668
 O330 O 0.45873 0.99506 0.09661
 O331 O 0.50649 1.07453 -0.06594
 O332 O 0.55826 1.05031 -0.07044
 O333 O 0.43520 0.99465 -0.07491
 O334 O 0.42611 0.94128 -0.04650
 O335 O 0.42507 1.06525 0.00542
 O336 O 0.45288 1.07514 0.05800
 O337 O 0.47986 1.09526 -0.01906
 O338 O 0.49605 1.09535 0.04248
 O339 O 0.40437 1.01821 -0.02062
 O340 O 0.40476 0.95753 -0.00413
 O341 O 0.48184 1.02160 -0.09538
 O342 O 0.53962 0.99759 -0.09379
 O343 O 0.49297 0.92431 0.06370
 O344 O 0.43989 0.95330 0.07148
 O345 O 0.56360 1.00672 0.07646
 O346 O 0.56848 1.06171 0.04669
 O347 O 0.57584 0.93631 -0.00594
 O348 O 0.54693 0.93304 -0.06133
 Zr349 Zr 0.52422 0.94663 -0.01446
 O350 O 0.49311 0.97564 -0.04658
 Zr351 Zr 0.55344 1.01513 0.02477
 O352 O 0.52449 1.04687 -0.00674
 Zr353 Zr 0.48499 0.97618 0.05390
 O354 O 0.45295 1.00712 0.02457
 Zr355 Zr 0.51496 1.02354 -0.05360
 O356 O 0.54795 0.99353 -0.02377
 Zr357 Zr 0.44624 0.98537 -0.02356
 O358 O 0.47573 0.95269 0.00702
 Zr359 Zr 0.47633 1.05392 0.01469
 O360 O 0.50649 1.02461 0.04816
 O361 O 0.53267 0.96757 0.03329
 O362 O 0.46707 1.03302 -0.03300
 C363 C 0.50648 0.90035 0.04627
 C364 C 0.59992 0.95440 0.00626
 C365 C 0.54584 0.99385 0.10042
 C366 C 0.49299 1.09857 -0.04867
 C367 C 0.45236 1.00840 -0.09883
 C368 C 0.40103 1.04787 -0.00783
 H369 H 0.49057 0.96355 -0.06839
 H370 H 0.43127 1.00989 0.03678
 H371 H 0.54720 0.95313 0.04778
 H372 H 0.53681 1.06844 -0.00979
 H373 H 0.57815 1.03611 -0.06479
 H374 H 0.59398 1.05064 -0.01195
 H375 H 0.39702 0.96890 0.01683
 H376 H 0.43251 0.93729 0.05363
 H377 H 0.53871 1.01210 -0.11429
 H378 H 0.56022 0.91193 -0.05822
 H379 H 0.43749 1.05781 0.06745
 H380 H 0.46654 1.01865 0.09991
 H381 H 0.47993 0.90128 -0.03087
 H382 H 0.44269 0.93322 -0.06347
 H383 H 0.55214 1.06685 0.06501
 H384 H 0.51652 1.10352 0.03059
 O385 O 0.48280 0.52073 0.09641
 O386 O 0.53835 0.50409 0.09710
 O387 O 0.48015 0.59596 0.01600
 O388 O 0.48932 0.59823 -0.03911
 O389 O 0.40296 0.51580 0.02036
 O390 O 0.40330 0.45788 0.00603
 O391 O 0.56488 0.50592 -0.07467
 O392 O 0.56916 0.55803 -0.05079
 O393 O 0.57482 0.43534 0.00542
 O394 O 0.54677 0.42649 0.05932
 O395 O 0.49421 0.42433 -0.06451
 O396 O 0.44088 0.45218 -0.07379
 O397 O 0.51807 0.47885 -0.09494
 O398 O 0.45682 0.49460 -0.09515
 O399 O 0.52071 0.40407 -0.01751
 O400 O 0.50457 0.40460 0.04327
 O401 O 0.59476 0.48193 -0.02200
 O402 O 0.59314 0.53970 0.00188
 O403 O 0.43633 0.49278 0.07647
 O404 O 0.42863 0.43956 0.04794
 O405 O 0.42284 0.56286 -0.00625
 O406 O 0.45211 0.56761 -0.06142
 O407 O 0.50560 0.57582 0.06368
 O408 O 0.56107 0.54715 0.06679
 Zr409 Zr 0.51423 0.52419 0.05356
 O410 O 0.54632 0.49314 0.02446
 Zr411 Zr 0.47447 0.55289 -0.01491
 O412 O 0.50582 0.52389 -0.04675
 Zr413 Zr 0.44590 0.48451 0.02457
 O414 O 0.47520 0.45240 -0.00634
 Zr415 Zr 0.55284 0.51477 -0.02364
 O416 O 0.52312 0.54774 0.00646
 Zr417 Zr 0.52350 0.44612 0.01514
 O418 O 0.49294 0.47560 0.04786
 Zr419 Zr 0.48460 0.47557 -0.05337
 O420 O 0.45125 0.50581 -0.02402
 O421 O 0.46634 0.53232 0.03284
 O422 O 0.53245 0.46674 -0.03270
 C423 C 0.45382 0.50649 0.10029
 C424 C 0.49324 0.59976 0.04554
 C425 C 0.39903 0.54503 0.00676
 C426 C 0.54759 0.49206 -0.09850
 C427 C 0.59847 0.45253 -0.00874
 C428 C 0.50783 0.40049 -0.04712
 H429 H 0.56822 0.49078 0.03640
 H430 H 0.46312 0.43064 -0.00890
 H431 H 0.45187 0.54687 0.04729
 H432 H 0.50867 0.53605 -0.06845
 H433 H 0.56364 0.57794 -0.03656
 H434 H 0.51067 0.59324 -0.05120
 H435 H 0.48352 0.39677 0.03215
 H436 H 0.44670 0.43225 0.06373
 H437 H 0.61347 0.53891 -0.01286
 H438 H 0.55803 0.56050 0.08789
 H439 H 0.43238 0.43593 -0.05675
 H440 H 0.39989 0.46548 -0.01764
 H441 H 0.53107 0.48019 0.09904
 H442 H 0.56392 0.44307 0.06697
 H443 H 0.43407 0.55096 -0.06650
 H444 H 0.46821 0.51544 -0.10309
 O445 O -0.01770 0.02171 0.59673
 O446 O 0.03770 0.00495 0.59784
 O447 O -0.01907 0.09743 0.51646
 O448 O -0.00943 0.09984 0.46150
 O449 O -0.09693 0.01783 0.51979
 O450 O -0.09689 -0.04002 0.50534
 O451 O 0.06583 0.00707 0.42624
 O452 O 0.07040 0.05899 0.45041
 O453 O 0.07447 -0.06395 0.50629
 O454 O 0.04580 -0.07275 0.55982
 O455 O -0.00553 -0.07392 0.43544
 O456 O -0.05853 -0.04574 0.42577
 O457 O 0.01895 -0.01949 0.40546
 O458 O -0.04220 -0.00323 0.40486
 O459 O 0.02036 -0.09460 0.48260
 O460 O 0.00357 -0.09420 0.54326
 O461 O 0.09507 -0.01745 0.47922
 O462 O 0.09366 0.04031 0.50323
 O463 O -0.06420 -0.00579 0.57625
 O464 O -0.07211 -0.05871 0.54733
 O465 O -0.07647 0.06480 0.49349
 O466 O -0.04649 0.06956 0.43868
 O467 O 0.00575 0.07697 0.56433
 O468 O 0.06099 0.04784 0.56783
 Zr469 Zr 0.01409 0.02529 0.55412
 O470 O 0.04623 -0.00593 0.52521
 Zr471 Zr -0.02479 0.05451 0.48539
 O472 O 0.00667 0.02540 0.45375
 Zr473 Zr -0.05425 -0.01378 0.52436
 O474 O -0.02491 -0.04599 0.49358
 Zr475 Zr 0.05342 0.01579 0.47724
 O476 O 0.02363 0.04889 0.50717
 Zr477 Zr 0.02314 -0.05274 0.51549
 O478 O -0.00748 -0.02313 0.54802
 Zr479 Zr -0.01488 -0.02270 0.44674
 O480 O -0.04828 0.00764 0.47590
 O481 O -0.03356 0.03385 0.53301
 O482 O 0.03271 -0.03202 0.46780
 C483 C -0.04677 0.00757 0.60030
 C484 C -0.00622 0.10107 0.54611
 C485 C -0.10055 0.04708 0.50616
 C486 C 0.04861 -0.00652 0.40220
 C487 C 0.09842 -0.04692 0.49244
 C488 C 0.00774 -0.09793 0.45284
 H489 H 0.06800 -0.00851 0.53736
 H490 H -0.03712 -0.06765 0.49081
 H491 H -0.04806 0.04844 0.54739
 H492 H 0.00983 0.03764 0.43214
 H493 H 0.06486 0.07891 0.46464
 H494 H 0.01213 0.09482 0.44982
 H495 H -0.01734 -0.10192 0.53180
 H496 H -0.05421 -0.06629 0.56318
 H497 H 0.11415 0.03935 0.48872
 H498 H 0.05786 0.06123 0.58890
 H499 H -0.06736 -0.06194 0.44270
 H500 H -0.09997 -0.03238 0.48164
 H501 H 0.03042 -0.01897 0.59954
 H502 H 0.06303 -0.05635 0.56770
 H503 H -0.06468 0.05313 0.43338
 H504 H -0.03049 0.01746 0.39700
 O505 O 0.74338 0.31543 0.17213
 O506 O 0.69154 0.32134 0.19769
 O507 O 0.81384 0.32631 0.25585
 O508 O 0.82615 0.30003 0.30372
 O509 O 0.82572 0.24329 0.18310
 O510 O 0.79730 0.19115 0.17522
 O511 O 0.72826 0.23449 0.34371
 O512 O 0.74670 0.28877 0.34484
 O513 O 0.65454 0.22937 0.26537
 O514 O 0.65339 0.24368 0.20602
 O515 O 0.73278 0.15515 0.26928
 O516 O 0.79140 0.15376 0.25538
 O517 O 0.75486 0.18741 0.32346
 O518 O 0.81072 0.17962 0.29389
 O519 O 0.68584 0.17509 0.24243
 O520 O 0.67851 0.20463 0.18700
 O521 O 0.67496 0.25548 0.31257
 O522 O 0.70115 0.31236 0.31248
 O523 O 0.76921 0.26799 0.15163
 O524 O 0.75424 0.20918 0.15172
 O525 O 0.84609 0.27028 0.22980
 O526 O 0.84432 0.25210 0.28968
 O527 O 0.76772 0.34644 0.22763
 O528 O 0.70858 0.34430 0.24753
 Zr529 Zr 0.73536 0.30424 0.22357
 O530 O 0.70294 0.27465 0.25374
 Zr531 Zr 0.80398 0.27442 0.26223
 O532 O 0.77416 0.24462 0.29474
 Zr533 Zr 0.77409 0.23567 0.19388
 O534 O 0.74376 0.20336 0.22351
 Zr535 Zr 0.72586 0.26598 0.30093
 O536 O 0.75727 0.29834 0.27196
 Zr537 Zr 0.69662 0.22632 0.23262
 O538 O 0.72582 0.25728 0.20006
 Zr539 Zr 0.76509 0.19741 0.27198
 O540 O 0.79791 0.22607 0.24062
 O541 O 0.78297 0.28318 0.21475
 O542 O 0.71710 0.21784 0.28063
 C543 C 0.75597 0.29749 0.14806
 C544 C 0.79657 0.35019 0.24213
 C545 C 0.84973 0.25645 0.20062
 C546 C 0.74118 0.20488 0.34728
 C547 C 0.65106 0.24205 0.29512
 C548 C 0.70326 0.15140 0.25624
 H549 H 0.68112 0.28670 0.25632
 H550 H 0.74145 0.18149 0.21155
 H551 H 0.79746 0.29768 0.20031
 H552 H 0.78593 0.24252 0.31676
 H553 H 0.75758 0.31008 0.33738
 H554 H 0.81111 0.29628 0.32336
 H555 H 0.69335 0.18526 0.18127
 H556 H 0.73116 0.21817 0.14781
 H557 H 0.68992 0.30995 0.33483
 H558 H 0.71145 0.36533 0.23408
 H559 H 0.78385 0.14886 0.23199
 H560 H 0.81224 0.18272 0.19353
 H561 H 0.68304 0.30201 0.18417
 H562 H 0.64766 0.26642 0.21483
 H563 H 0.85030 0.23079 0.27788
 H564 H 0.81596 0.19410 0.31368
 O565 O 0.75558 0.68479 0.67607
 O566 O 0.80753 0.67878 0.70152
 O567 O 0.68548 0.67386 0.75997
 O568 O 0.67346 0.70024 0.80799
 O569 O 0.67337 0.75691 0.68736
 O570 O 0.70167 0.80905 0.67953
 O571 O 0.77144 0.76569 0.84772
 O572 O 0.75311 0.71146 0.84881
 O573 O 0.84484 0.77081 0.76898
 O574 O 0.84572 0.75628 0.70967
 O575 O 0.76692 0.84508 0.77316
 O576 O 0.70801 0.84644 0.75953
 O577 O 0.74490 0.81285 0.82759
 O578 O 0.68909 0.82090 0.79830
 O579 O 0.81362 0.82496 0.74606
 O580 O 0.82055 0.79531 0.69069
 O581 O 0.82468 0.74479 0.81629
 O582 O 0.79847 0.68788 0.81629
 O583 O 0.72970 0.73225 0.65573
 O584 O 0.74463 0.79106 0.65584
 O585 O 0.65311 0.72998 0.73409
 O586 O 0.65513 0.74813 0.79396
 O587 O 0.73145 0.65376 0.73153
 O588 O 0.79061 0.65583 0.75138
 Zr589 Zr 0.76380 0.69593 0.72750
 O590 O 0.79640 0.72549 0.75759
 Zr591 Zr 0.69539 0.72581 0.76641
 O592 O 0.72540 0.75564 0.79880
 Zr593 Zr 0.72501 0.76455 0.69802
 O594 O 0.75551 0.79684 0.72753
 Zr595 Zr 0.77371 0.73425 0.80485
 O596 O 0.74213 0.70188 0.77598
 Zr597 Zr 0.80265 0.77377 0.73642
 O598 O 0.77326 0.74285 0.70397
 Zr599 Zr 0.73447 0.80286 0.77610
 O600 O 0.70144 0.77417 0.74487
 O601 O 0.71618 0.71703 0.71886
 O602 O 0.78246 0.78236 0.78454
 C603 C 0.74292 0.70275 0.65207
 C604 C 0.70267 0.64997 0.74612
 C605 C 0.64940 0.74378 0.70491
 C606 C 0.75856 0.79532 0.85139
 C607 C 0.84848 0.75820 0.79872
 C608 C 0.79635 0.84873 0.75991
 H609 H 0.81821 0.71342 0.76009
 H610 H 0.75780 0.81868 0.71555
 H611 H 0.70162 0.70254 0.70445
 H612 H 0.71374 0.75777 0.82086
 H613 H 0.74214 0.69017 0.84137
 H614 H 0.68856 0.70411 0.82760
 H615 H 0.80573 0.81471 0.68502
 H616 H 0.76765 0.78201 0.65175
 H617 H 0.80987 0.69032 0.83857
 H618 H 0.78770 0.63481 0.73788
 H619 H 0.71563 0.85144 0.73620
 H620 H 0.68686 0.81751 0.69793
 H621 H 0.81597 0.69808 0.68794
 H622 H 0.85154 0.73360 0.71856
 H623 H 0.64926 0.76953 0.78230
 H624 H 0.68369 0.80617 0.81783
 O625 O 0.31516 0.17435 0.74457
 O626 O 0.32118 0.19983 0.69270
 O627 O 0.32642 0.25811 0.81493
 O628 O 0.30014 0.30600 0.82725
 O629 O 0.24306 0.18567 0.82685
 O630 O 0.19093 0.17798 0.79850
 O631 O 0.23462 0.34607 0.72919
 O632 O 0.28892 0.34702 0.74761
 O633 O 0.22919 0.26758 0.65560
 O634 O 0.24350 0.20833 0.65448
 O635 O 0.15506 0.27188 0.73366
 O636 O 0.15377 0.25809 0.79255
 O637 O 0.18744 0.32605 0.75575
 O638 O 0.17949 0.29675 0.81156
 O639 O 0.17500 0.24485 0.68683
 O640 O 0.20450 0.18937 0.67972
 O641 O 0.25543 0.31472 0.67591
 O642 O 0.31240 0.31455 0.70212
 O643 O 0.26764 0.15409 0.77039
 O644 O 0.20879 0.15442 0.75542
 O645 O 0.27017 0.23225 0.84726
 O646 O 0.25224 0.29215 0.84542
 O647 O 0.34641 0.22974 0.76885
 O648 O 0.34425 0.24957 0.70969
 Zr649 Zr 0.30414 0.22579 0.73651
 O650 O 0.27459 0.25598 0.70401
 Zr651 Zr 0.27445 0.26461 0.80508
 O652 O 0.24466 0.29713 0.77518
 Zr653 Zr 0.23546 0.19643 0.77523
 O654 O 0.20318 0.22608 0.74485
 Zr655 Zr 0.26600 0.30319 0.72686
 O656 O 0.29834 0.27419 0.75835
 Zr657 Zr 0.22621 0.23498 0.69771
 O658 O 0.25712 0.20242 0.72697
 Zr659 Zr 0.19735 0.27458 0.76608
 O660 O 0.22600 0.24322 0.79898
 O661 O 0.28307 0.21711 0.78413
 O662 O 0.21781 0.28304 0.71809
 C663 C 0.29713 0.15039 0.75714
 C664 C 0.35027 0.24430 0.79766
 C665 C 0.25623 0.20315 0.85088
 C666 C 0.20499 0.34978 0.74207
 C667 C 0.24191 0.29726 0.65206
 C668 C 0.15132 0.25875 0.70416
 H669 H 0.28663 0.25848 0.68219
 H670 H 0.18129 0.21418 0.74254
 H671 H 0.29756 0.20265 0.79866
 H672 H 0.24261 0.31916 0.78691
 H673 H 0.31022 0.33952 0.75855
 H674 H 0.29651 0.32559 0.81212
 H675 H 0.18502 0.18380 0.69446
 H676 H 0.21783 0.15035 0.73239
 H677 H 0.31000 0.33684 0.69080
 H678 H 0.36527 0.23606 0.71258
 H679 H 0.14861 0.23484 0.78477
 H680 H 0.18247 0.19638 0.81330
 H681 H 0.30180 0.18638 0.68419
 H682 H 0.26626 0.21707 0.64875
 H683 H 0.23082 0.28053 0.85130
 H684 H 0.19422 0.31628 0.81695
 O685 O 0.18548 0.82534 0.24309
 O686 O 0.17956 0.79975 0.19106
 O687 O 0.17442 0.74189 0.31346
 O688 O 0.20059 0.69384 0.32563
 O689 O 0.25766 0.81419 0.32529
 O690 O 0.30990 0.82176 0.29685
 O691 O 0.26597 0.65352 0.22790
 O692 O 0.21172 0.65268 0.24628
 O693 O 0.27112 0.73181 0.15400
 O694 O 0.25699 0.79113 0.15290
 O695 O 0.34563 0.72784 0.23212
 O696 O 0.34710 0.74163 0.29081
 O697 O 0.31319 0.67364 0.25438
 O698 O 0.32127 0.70326 0.31012
 O699 O 0.32561 0.75468 0.18522
 O700 O 0.29614 0.81001 0.17792
 O701 O 0.24497 0.68472 0.17446
 O702 O 0.18815 0.68502 0.20076
 O703 O 0.23302 0.84564 0.26892
 O704 O 0.29183 0.84534 0.25379
 O705 O 0.23052 0.76766 0.34568
 O706 O 0.24860 0.70784 0.34396
 O707 O 0.15436 0.77014 0.26734
 O708 O 0.15632 0.75011 0.20824
 Zr709 Zr 0.19654 0.77391 0.23495
 O710 O 0.22601 0.74359 0.20250
 Zr711 Zr 0.22633 0.73522 0.30355
 O712 O 0.25607 0.70263 0.27369
 Zr713 Zr 0.26527 0.80333 0.27364
 O714 O 0.29747 0.77360 0.24324
 Zr715 Zr 0.23462 0.69643 0.22541
 O716 O 0.20234 0.72554 0.25684
 Zr717 Zr 0.27438 0.76453 0.19610
 O718 O 0.24357 0.79722 0.22537
 Zr719 Zr 0.30337 0.72516 0.26452
 O720 O 0.27477 0.75660 0.29743
 O721 O 0.21770 0.78265 0.28255
 O722 O 0.28283 0.71652 0.21654
 C723 C 0.20347 0.84931 0.25576
 C724 C 0.15057 0.75575 0.29622
 C725 C 0.24439 0.79679 0.34930
 C726 C 0.29559 0.64984 0.24085
 C727 C 0.25832 0.70214 0.15052
 C728 C 0.34935 0.74092 0.20262
 H729 H 0.21390 0.74103 0.18070
 H730 H 0.31936 0.78549 0.24090
 H731 H 0.20324 0.79714 0.29706
 H732 H 0.25815 0.68065 0.28548
 H733 H 0.19045 0.66024 0.25723
 H734 H 0.20459 0.67412 0.31074
 H735 H 0.31543 0.81580 0.19284
 H736 H 0.28275 0.84932 0.23074
 H737 H 0.19048 0.66267 0.18952
 H738 H 0.13537 0.76373 0.21105
 H739 H 0.35199 0.76501 0.28331
 H740 H 0.31822 0.80348 0.31186
 H741 H 0.19885 0.81341 0.18274
 H742 H 0.23417 0.78245 0.14725
 H743 H 0.27001 0.71951 0.34984
 H744 H 0.30659 0.68371 0.31553
 O745 O 0.15297 0.72921 0.76655
 O746 O 0.15214 0.74621 0.71114
 O747 O 0.23309 0.65359 0.76838
 O748 O 0.28811 0.65107 0.75903
 O749 O 0.22918 0.73318 0.84621
 O750 O 0.24381 0.79099 0.84635
 O751 O 0.32372 0.74376 0.68386
 O752 O 0.29967 0.69191 0.67917
 O753 O 0.24378 0.81487 0.67489
 O754 O 0.19034 0.82396 0.70325
 O755 O 0.31426 0.82479 0.75552
 O756 O 0.32383 0.79672 0.80820
 O757 O 0.34429 0.77024 0.73091
 O758 O 0.34442 0.75385 0.79226
 O759 O 0.26731 0.84556 0.72934
 O760 O 0.20649 0.84518 0.74574
 O761 O 0.27081 0.76827 0.65436
 O762 O 0.24691 0.71051 0.65573
 O763 O 0.17315 0.75678 0.81317
 O764 O 0.20201 0.80982 0.82123
 O765 O 0.25561 0.68618 0.82589
 O766 O 0.31072 0.68137 0.79624
 O767 O 0.18541 0.67411 0.74322
 O768 O 0.18224 0.70320 0.68794
 Zr769 Zr 0.19569 0.72576 0.73495
 O770 O 0.22476 0.75694 0.70302
 Zr771 Zr 0.26415 0.69645 0.77425
 O772 O 0.29595 0.72547 0.74294
 Zr773 Zr 0.22505 0.76481 0.80353
 O774 O 0.25603 0.79693 0.77440
 Zr775 Zr 0.27272 0.73511 0.69606
 O776 O 0.24266 0.70206 0.72568
 Zr777 Zr 0.23441 0.80375 0.72622
 O778 O 0.20167 0.77418 0.75662
 Zr779 Zr 0.30289 0.77356 0.76459
 O780 O 0.27353 0.74331 0.79785
 O781 O 0.21653 0.71720 0.78272
 O782 O 0.28210 0.78293 0.71686
 C783 C 0.14924 0.74330 0.79565
 C784 C 0.20350 0.65000 0.75538
 C785 C 0.24268 0.70387 0.84989
 C786 C 0.34768 0.75727 0.70123
 C787 C 0.25759 0.79774 0.65095
 C788 C 0.29695 0.84885 0.74223
 H789 H 0.21271 0.75953 0.68120
 H790 H 0.25874 0.81858 0.78668
 H791 H 0.20207 0.70262 0.79712
 H792 H 0.31756 0.71319 0.73989
 H793 H 0.28548 0.67199 0.68467
 H794 H 0.29986 0.65604 0.73750
 H795 H 0.21785 0.85291 0.76672
 H796 H 0.18611 0.81728 0.80331
 H797 H 0.26148 0.71144 0.63528
 H798 H 0.16113 0.68989 0.69095
 H799 H 0.30661 0.81242 0.81740
 H800 H 0.26741 0.78318 0.84968
 H801 H 0.15031 0.77007 0.71862
 H802 H 0.18228 0.80738 0.68626
 H803 H 0.31581 0.69771 0.81460
 H804 H 0.35253 0.73333 0.78037
 O805 O 0.25761 0.18518 0.17634
 O806 O 0.30952 0.17934 0.20202
 O807 O 0.18713 0.17463 0.25983
 O808 O 0.17487 0.20103 0.30773
 O809 O 0.17546 0.25744 0.18699
 O810 O 0.20382 0.30950 0.17908
 O811 O 0.27264 0.26652 0.34789
 O812 O 0.25450 0.21233 0.34902
 O813 O 0.34656 0.27142 0.26938
 O814 O 0.34774 0.25707 0.21025
 O815 O 0.26839 0.34577 0.27314
 O816 O 0.20994 0.34732 0.25945
 O817 O 0.24607 0.31357 0.32756
 O818 O 0.19031 0.32136 0.29762
 O819 O 0.31525 0.32571 0.24628
 O820 O 0.32248 0.29586 0.19097
 O821 O 0.32622 0.24548 0.31665
 O822 O 0.29988 0.18864 0.31670
 O823 O 0.23185 0.23259 0.15573
 O824 O 0.24699 0.29146 0.15579
 O825 O 0.15496 0.23066 0.23370
 O826 O 0.15673 0.24893 0.29361
 O827 O 0.23325 0.15439 0.23175
 O828 O 0.29235 0.15649 0.25186
 Zr829 Zr 0.26567 0.19653 0.22776
 O830 O 0.29811 0.22619 0.25791
 Zr831 Zr 0.19707 0.22653 0.26624
 O832 O 0.22693 0.25637 0.29875
 Zr833 Zr 0.22704 0.26506 0.19789
 O834 O 0.25733 0.29743 0.22753
 Zr835 Zr 0.27524 0.23502 0.30507
 O836 O 0.24376 0.20261 0.27611
 Zr837 Zr 0.30445 0.27444 0.23670
 O838 O 0.27527 0.24340 0.20416
 Zr839 Zr 0.23605 0.30353 0.27599
 O840 O 0.20321 0.27483 0.24459
 O841 O 0.21810 0.21763 0.21883
 O842 O 0.28404 0.28312 0.28473
 C843 C 0.24502 0.20304 0.15223
 C844 C 0.20437 0.15070 0.24614
 C845 C 0.15140 0.24437 0.20445
 C846 C 0.25958 0.29609 0.35147
 C847 C 0.35011 0.25877 0.29911
 C848 C 0.29784 0.34947 0.25997
 H849 H 0.31991 0.21412 0.26051
 H850 H 0.25964 0.31926 0.21552
 H851 H 0.20359 0.20310 0.20439
 H852 H 0.21513 0.25851 0.32073
 H853 H 0.24347 0.19107 0.34157
 H854 H 0.18997 0.20474 0.32736
 H855 H 0.30771 0.31527 0.18522
 H856 H 0.26995 0.28222 0.15174
 H857 H 0.31124 0.19111 0.33899
 H858 H 0.28950 0.13544 0.23839
 H859 H 0.21710 0.35186 0.23588
 H860 H 0.18890 0.31802 0.19735
 H861 H 0.31793 0.19855 0.18832
 H862 H 0.35327 0.23421 0.21887
 H863 H 0.15071 0.27017 0.28174
 H864 H 0.18504 0.30697 0.31744
 O865 O 0.81425 0.67534 0.24438
 O866 O 0.82024 0.70101 0.19261
 O867 O 0.82470 0.75885 0.31510
 O868 O 0.79808 0.80653 0.32756
 O869 O 0.74183 0.68583 0.32639
 O870 O 0.68978 0.67802 0.29790
 O871 O 0.73296 0.84671 0.22938
 O872 O 0.78710 0.84781 0.24790
 O873 O 0.72812 0.76840 0.15539
 O874 O 0.74259 0.70926 0.15413
 O875 O 0.65357 0.77203 0.23323
 O876 O 0.65188 0.75838 0.29170
 O877 O 0.68578 0.82644 0.25573
 O878 O 0.67785 0.79650 0.31151
 O879 O 0.67381 0.74525 0.18639
 O880 O 0.70364 0.69001 0.17917
 O881 O 0.75407 0.81559 0.17595
 O882 O 0.81091 0.81556 0.20245
 O883 O 0.76673 0.65468 0.26988
 O884 O 0.70783 0.65481 0.25469
 O885 O 0.76859 0.73249 0.34708
 O886 O 0.75019 0.79235 0.34541
 O887 O 0.84502 0.73076 0.26899
 O888 O 0.84301 0.75081 0.20989
 Zr889 Zr 0.80292 0.72671 0.23645
 O890 O 0.77332 0.75685 0.20395
 Zr891 Zr 0.77274 0.76509 0.30507
 O892 O 0.74295 0.79760 0.27515
 Zr893 Zr 0.73426 0.69683 0.27480
 O894 O 0.70194 0.72647 0.24444
 Zr895 Zr 0.76445 0.80394 0.22693
 O896 O 0.79679 0.77499 0.25847
 Zr897 Zr 0.72506 0.73567 0.19740
 O898 O 0.75604 0.70314 0.22664
 Zr899 Zr 0.69577 0.77489 0.26578
 O900 O 0.72442 0.74348 0.29868
 O901 O 0.78171 0.71773 0.28395
 O902 O 0.71635 0.78363 0.21789
 C903 C 0.79632 0.65122 0.25677
 C904 C 0.84868 0.74522 0.29788
 C905 C 0.75488 0.70325 0.35054
 C906 C 0.70332 0.85030 0.24226
 C907 C 0.74077 0.79812 0.15198
 C908 C 0.64997 0.75892 0.20371
 H909 H 0.78544 0.75948 0.18218
 H910 H 0.68011 0.71448 0.24203
 H911 H 0.79624 0.70330 0.29846
 H912 H 0.74078 0.81956 0.28698
 H913 H 0.80837 0.84036 0.25894
 H914 H 0.79455 0.82612 0.31240
 H915 H 0.68420 0.68425 0.19387
 H916 H 0.71708 0.65079 0.23172
 H917 H 0.80847 0.83787 0.19116
 H918 H 0.86408 0.73739 0.21280
 H919 H 0.64742 0.73479 0.28455
 H920 H 0.68122 0.69628 0.31282
 H921 H 0.80099 0.68744 0.18401
 H922 H 0.76539 0.71802 0.14858
 H923 H 0.72893 0.78044 0.35131
 H924 H 0.69221 0.81632 0.31684
 O925 O 0.84699 0.22814 0.73054
 O926 O 0.84791 0.24481 0.78602
 O927 O 0.76678 0.15244 0.72869
 O928 O 0.71176 0.15001 0.73794
 O929 O 0.77047 0.23233 0.65104
 O930 O 0.75591 0.29015 0.65121
 O931 O 0.67637 0.24238 0.81362
 O932 O 0.70049 0.19043 0.81791
 O933 O 0.75622 0.31338 0.82275
 O934 O 0.80990 0.32232 0.79430
 O935 O 0.68577 0.32381 0.74252
 O936 O 0.67614 0.29585 0.68948
 O937 O 0.65571 0.26919 0.76681
 O938 O 0.65532 0.25317 0.70545
 O939 O 0.73284 0.34433 0.76868
 O940 O 0.79346 0.34402 0.75215
 O941 O 0.72913 0.26676 0.84306
 O942 O 0.75321 0.20906 0.84149
 O943 O 0.82671 0.25588 0.68409
 O944 O 0.79776 0.30884 0.67625
 O945 O 0.74415 0.18526 0.67123
 O946 O 0.68917 0.18044 0.70089
 O947 O 0.81456 0.17288 0.75371
 O948 O 0.81789 0.20177 0.80906
 Zr949 Zr 0.80431 0.22449 0.76218
 O950 O 0.77529 0.25554 0.79435
 Zr951 Zr 0.73576 0.19539 0.72291
 O952 O 0.70400 0.22436 0.75438
 Zr953 Zr 0.77479 0.26381 0.69386
 O954 O 0.74391 0.29588 0.72324
 Zr955 Zr 0.72734 0.23374 0.80126
 O956 O 0.75737 0.20080 0.77143
 Zr957 Zr 0.76566 0.30244 0.77140
 O958 O 0.79829 0.27299 0.74075
 Zr959 Zr 0.69704 0.27257 0.73303
 O960 O 0.72633 0.24236 0.69958
 O961 O 0.78337 0.21610 0.71441
 O962 O 0.71797 0.28166 0.78074
 C963 C 0.85068 0.24241 0.70155
 C964 C 0.79639 0.14880 0.74164
 C965 C 0.75694 0.20306 0.64727
 C966 C 0.65238 0.25607 0.79642
 C967 C 0.74230 0.29623 0.84658
 C968 C 0.70315 0.34775 0.75597
 H969 H 0.78736 0.25804 0.81618
 H970 H 0.74119 0.31759 0.71110
 H971 H 0.79782 0.20157 0.69991
 H972 H 0.68239 0.21210 0.75741
 H973 H 0.71476 0.17056 0.81235
 H974 H 0.70001 0.15493 0.75949
 H975 H 0.78216 0.35175 0.73115
 H976 H 0.81359 0.31633 0.69422
 H977 H 0.73861 0.20988 0.86193
 H978 H 0.83899 0.18845 0.80595
 H979 H 0.69321 0.31187 0.68059
 H980 H 0.73226 0.28248 0.64800
 H981 H 0.84965 0.26873 0.77877
 H982 H 0.81765 0.30591 0.81157
 H983 H 0.68397 0.19695 0.68275
 H984 H 0.64738 0.23247 0.71710
 C985 C 0.10541 1.00120 1.22024
 C986 C 0.09076 1.00289 1.19344
 C987 C 0.07559 1.00519 1.16109
 C988 C 0.06348 1.00671 1.13307
 C989 C 0.60510 0.49970 0.71989
 C990 C 0.59043 0.50150 0.69311
 C991 C 0.57514 0.50404 0.66085
 C992 C 0.56290 0.50578 0.63289
 C993 C 0.39566 -0.00041 0.71979
 C994 C 0.41076 -0.00161 0.69327
 C995 C 0.42640 -0.00364 0.66121
 C996 C 0.43870 -0.00523 0.63332
 C997 C -0.10491 0.50037 1.21815
 C998 C -0.09004 0.49890 1.19150
 C999 C -0.07452 0.49656 1.15938
 C1000 C -0.06220 0.49472 1.13150
 C1001 C -0.10456 0.50113 0.27961
 C1002 C -0.08947 0.50255 0.30616
 C1003 C -0.07382 0.50478 0.33823
 C1004 C -0.06151 0.50648 0.36614
 C1005 C 0.39519 1.00049 -0.21878
 C1006 C 0.41004 1.00252 -0.19213
 C1007 C 0.42557 1.00549 -0.16005
 C1008 C 0.43796 1.00755 -0.13220
 C1009 C 0.60458 0.49807 -0.21857
 C1010 C 0.58962 0.49643 -0.19198
 C1011 C 0.57413 0.49411 -0.15983
 C1012 C 0.56186 0.49256 -0.13191
 C1013 C 0.10532 -0.00048 0.28188
 C1014 C 0.09058 -0.00211 0.30862
 C1015 C 0.07529 -0.00440 0.34088
 C1016 C 0.06305 -0.00595 0.36883
 C1017 C 0.21944 1.10422 1.00243
 C1018 C 0.19291 1.08920 1.00439
 C1019 C 0.16090 1.07353 1.00709
 C1020 C 0.13308 1.06109 1.00886
 C1021 C 0.71836 0.60431 0.50221
 C1022 C 0.69182 0.58933 0.50420
 C1023 C 0.65981 0.57372 0.50700
 C1024 C 0.63199 0.56130 0.50887
 C1025 C 0.71852 0.39559 -0.00342
 C1026 C 0.69191 0.41051 -0.00490
 C1027 C 0.65977 0.42597 -0.00708
 C1028 C 0.63186 0.43825 -0.00848
 C1029 C 0.21831 -0.10440 0.49918
 C1030 C 0.19162 -0.08960 0.49740
 C1031 C 0.15953 -0.07401 0.49482
 C1032 C 0.13171 -0.06151 0.49307
 C1033 C 0.27974 -0.10364 0.50010
 C1034 C 0.30624 -0.08854 0.50141
 C1035 C 0.33833 -0.07301 0.50354
 C1036 C 0.36627 -0.06087 0.50520
 C1037 C -0.22003 0.39533 0.99726
 C1038 C -0.19335 0.41014 0.99866
 C1039 C -0.16118 0.42554 1.00096
 C1040 C -0.13325 0.43773 1.00280
 C1041 C -0.22021 0.60439 0.50078
 C1042 C -0.19358 0.58949 0.49934
 C1043 C -0.16144 0.57401 0.49709
 C1044 C -0.13352 0.56180 0.49530
 C1045 C 0.28089 1.10443 0.00031
 C1046 C 0.30757 1.08968 -0.00181
 C1047 C 0.33973 1.07436 -0.00479
 C1048 C 0.36764 1.06215 -0.00685
 C1049 C 0.00260 1.21891 1.10436
 C1050 C 0.00444 1.19217 1.08973
 C1051 C 0.00692 1.15995 1.07447
 C1052 C 0.00855 1.13201 1.06230
 C1053 C 0.50049 0.71869 0.60504
 C1054 C 0.50238 0.69187 0.59050
 C1055 C 0.50506 0.65960 0.57533
 C1056 C 0.50691 0.63166 0.56315
 C1057 C -0.00032 0.72092 0.39559
 C1058 C -0.00169 0.69438 0.41062
 C1059 C -0.00380 0.66232 0.42621
 C1060 C -0.00539 0.63443 0.43848
 C1061 C 0.50079 1.21894 -0.10495
 C1062 C 0.49884 1.19216 -0.09035
 C1063 C 0.49602 1.15991 -0.07515
 C1064 C 0.49400 1.13197 -0.06298
 C1065 C 0.50225 0.28046 -0.10431
 C1066 C 0.50378 0.30704 -0.08930
 C1067 C 0.50597 0.33918 -0.07376
 C1068 C 0.50742 0.36709 -0.06145
 C1069 C 0.00119 -0.21770 0.39533
 C1070 C 0.00304 -0.19110 0.41025
 C1071 C 0.00553 -0.15905 0.42588
 C1072 C 0.00718 -0.13123 0.43834
 C1073 C 0.49970 -0.21987 0.60405
 C1074 C 0.49861 -0.19345 0.58878
 C1075 C 0.49664 -0.16145 0.57299
 C1076 C 0.49501 -0.13360 0.56063
 C1077 C 0.00130 0.28028 1.10355
 C1078 C -0.00012 0.30664 1.08820
 C1079 C -0.00244 0.33851 1.07221
 C1080 C -0.00431 0.36627 1.05968
 C1081 C 0.74947 0.35392 0.02779
 C1082 C 0.75086 0.33907 0.05444
 C1083 C 0.75308 0.32363 0.08660
 C1084 C 0.75481 0.31146 0.11455
 C1085 C 0.25009 0.85461 0.53084
 C1086 C 0.25204 0.83988 0.55755
 C1087 C 0.25487 0.82447 0.58971
 C1088 C 0.25682 0.81215 0.61759
 C1089 C 0.74895 0.64619 0.53187
 C1090 C 0.74771 0.66119 0.55845
 C1091 C 0.74561 0.67668 0.59059
 C1092 C 0.74397 0.68883 0.61854
 C1093 C 0.25032 0.14594 0.03219
 C1094 C 0.24933 0.16093 0.05879
 C1095 C 0.24748 0.17656 0.09089
 C1096 C 0.24599 0.18890 0.11878
 C1097 C 0.24982 0.14606 0.97080
 C1098 C 0.25099 0.16111 0.94425
 C1099 C 0.25318 0.17676 0.91221
 C1100 C 0.25498 0.18908 0.88434
 C1101 C 0.74902 0.64587 0.47044
 C1102 C 0.75018 0.66083 0.44383
 C1103 C 0.75220 0.67652 0.41177
 C1104 C 0.75380 0.68896 0.38393
 C1105 C 0.24939 0.85404 0.46934
 C1106 C 0.24842 0.83896 0.44277
 C1107 C 0.24669 0.82332 0.41066
 C1108 C 0.24531 0.81099 0.38275
 C1109 C 0.74855 0.35371 0.96636
 C1110 C 0.74686 0.33870 0.93980
 C1111 C 0.74441 0.32307 0.90775
 C1112 C 0.74278 0.31065 0.87991
 C1113 C 0.85356 0.47008 0.24874
 C1114 C 0.83853 0.44354 0.24740
 C1115 C 0.82289 0.41151 0.24519
 C1116 C 0.81058 0.38365 0.24343
 C1117 C 0.35406 0.96876 0.74967
 C1118 C 0.33927 0.94209 0.74784
 C1119 C 0.32377 0.91000 0.74510
 C1120 C 0.31138 0.88218 0.74315
 C1121 C 0.14689 0.96953 0.25097
 C1122 C 0.16179 0.94289 0.25192
 C1123 C 0.17727 0.91074 0.25361
 C1124 C 0.18948 0.88280 0.25495
 C1125 C 0.64639 0.46801 0.75101
 C1126 C 0.66115 0.44129 0.75226
 C1127 C 0.67650 0.40905 0.75422
 C1128 C 0.68876 0.38112 0.75557
 C1129 C 0.64651 0.52952 0.75120
 C1130 C 0.66133 0.55621 0.75036
 C1131 C 0.67664 0.58846 0.74869
 C1132 C 0.68871 0.61646 0.74725
 C1133 C 0.14710 0.03088 0.25131
 C1134 C 0.16219 0.05740 0.25039
 C1135 C 0.17789 0.08943 0.24865
 C1136 C 0.19025 0.11728 0.24720
 C1137 C 0.35343 0.03018 0.75049
 C1138 C 0.33842 0.05673 0.75185
 C1139 C 0.32300 0.08887 0.75412
 C1140 C 0.31093 0.11684 0.75592
 C1141 C 0.85352 0.53142 0.24951
 C1142 C 0.83846 0.55794 0.25111
 C1143 C 0.82277 0.58994 0.25358
 C1144 C 0.81041 0.61778 0.25549
 C1145 C 0.97047 0.25021 0.14509
 C1146 C 0.94361 0.25153 0.15957
 C1147 C 0.91126 0.25365 0.17463
 C1148 C 0.88323 0.25530 0.18663
 C1149 C 0.46834 0.75052 0.64548
 C1150 C 0.44143 0.75227 0.65985
 C1151 C 0.40908 0.75478 0.67487
 C1152 C 0.38109 0.75652 0.68696
 C1153 C 0.47089 0.25012 0.85368
 C1154 C 0.44417 0.24909 0.83886
 C1155 C 0.41188 0.24717 0.82357
 C1156 C 0.38385 0.24555 0.81154
 C1157 C 0.96919 0.75146 0.35408
 C1158 C 0.94242 0.75028 0.33937
 C1159 C 0.91016 0.74824 0.32406
 C1160 C 0.88218 0.74654 0.31192
 C1161 C 0.03064 0.75128 0.35344
 C1162 C 0.05715 0.75209 0.33830
 C1163 C 0.08922 0.75362 0.32263
 C1164 C 0.11712 0.75488 0.31031
 C1165 C 0.53241 0.25022 0.85377
 C1166 C 0.55906 0.25166 0.83888
 C1167 C 0.59119 0.25390 0.82333
 C1168 C 0.61905 0.25547 0.81091
 C1169 C 0.52980 0.74974 0.64694
 C1170 C 0.55616 0.74855 0.66237
 C1171 C 0.58810 0.74648 0.67832
 C1172 C 0.61593 0.74485 0.69078
 C1173 C 0.03192 0.25003 0.14623
 C1174 C 0.05829 0.24894 0.16163
 C1175 C 0.09021 0.24697 0.17762
 C1176 C 0.11801 0.24540 0.19017
 C1177 C -0.10357 0.99881 0.78153
 C1178 C -0.08816 0.99748 0.80790
 C1179 C -0.07205 0.99520 0.83976
 C1180 C -0.05943 0.99344 0.86753
 C1181 C 0.39605 0.50048 0.28128
 C1182 C 0.41124 0.49912 0.30777
 C1183 C 0.42714 0.49659 0.33970
 C1184 C 0.43964 0.49453 0.36750
 C1185 C 0.60443 0.00139 0.28129
 C1186 C 0.58939 0.00314 0.30783
 C1187 C 0.57356 0.00574 0.33977
 C1188 C 0.56098 0.00748 0.36755
 C1189 C 0.10478 0.50031 0.77978
 C1190 C 0.08997 0.50224 0.80647
 C1191 C 0.07437 0.50504 0.83856
 C1192 C 0.06189 0.50694 0.86640
 C1193 C 0.10392 0.49872 0.71830
 C1194 C 0.08852 0.49683 0.69194
 C1195 C 0.07243 0.49416 0.66007
 C1196 C 0.05978 0.49240 0.63230
 C1197 C 0.60387 1.00063 0.21995
 C1198 C 0.58850 0.99916 0.19357
 C1199 C 0.57246 0.99679 0.16170
 C1200 C 0.55992 0.99498 0.13391
 C1201 C 0.39617 0.50017 0.21994
 C1202 C 0.41141 0.50146 0.19350
 C1203 C 0.42734 0.50370 0.16159
 C1204 C 0.43981 0.50544 0.13378
 C1205 C -0.10410 -0.00086 0.72013
 C1206 C -0.08908 0.00091 0.69357
 C1207 C -0.07332 0.00378 0.66159
 C1208 C -0.06088 0.00604 0.63378
 C1209 C -0.21928 0.89629 1.00095
 C1210 C -0.19284 0.91150 0.99965
 C1211 C -0.16094 0.92742 0.99743
 C1212 C -0.13314 0.93990 0.99571
 C1213 C 0.27979 0.39637 0.50138
 C1214 C 0.30625 0.41156 0.49997
 C1215 C 0.33821 0.42734 0.49757
 C1216 C 0.36605 0.43970 0.49569
 C1217 C 0.27961 0.60298 -0.00020
 C1218 C 0.30592 0.58754 0.00128
 C1219 C 0.33773 0.57146 0.00374
 C1220 C 0.36551 0.55895 0.00563
 C1221 C -0.22038 0.10416 0.49720
 C1222 C -0.19383 0.08915 0.49906
 C1223 C -0.16187 0.07343 0.50207
 C1224 C -0.13405 0.06106 0.50446
 C1225 C 0.71830 0.10362 0.49631
 C1226 C 0.69201 0.08817 0.49473
 C1227 C 0.66026 0.07195 0.49242
 C1228 C 0.63257 0.05920 0.49093
 C1229 C 0.21834 0.60361 0.99875
 C1230 C 0.19189 0.58846 0.99659
 C1231 C 0.16010 0.57241 0.99347
 C1232 C 0.13243 0.55968 0.99129
 C1233 C 0.21844 0.39606 0.50138
 C1234 C 0.19192 0.41119 0.50280
 C1235 C 0.15999 0.42712 0.50516
 C1236 C 0.13223 0.43973 0.50682
 C1237 C 0.71945 0.89641 0.00040
 C1238 C 0.69304 0.91174 0.00137
 C1239 C 0.66117 0.92779 0.00338
 C1240 C 0.63340 0.94035 0.00507
 C1241 C -0.00001 0.78003 0.89732
 C1242 C -0.00111 0.80621 0.91302
 C1243 C -0.00311 0.83795 0.92932
 C1244 C -0.00471 0.86570 0.94193
 C1245 C 0.50186 0.28003 0.39697
 C1246 C 0.50043 0.30636 0.41242
 C1247 C 0.49782 0.33819 0.42854
 C1248 C 0.49565 0.36594 0.44110
 C1249 C 0.00216 0.28230 0.60350
 C1250 C 0.00386 0.30883 0.58849
 C1251 C 0.00637 0.34083 0.57279
 C1252 C 0.00801 0.36864 0.56035
 C1253 C 0.49980 0.78064 0.10372
 C1254 C 0.50110 0.80716 0.08864
 C1255 C 0.50341 0.83913 0.07284
 C1256 C 0.50526 0.86692 0.06039
 C1257 C 0.50008 0.71934 0.10336
 C1258 C 0.49879 0.69297 0.08798
 C1259 C 0.49644 0.66111 0.07192
 C1260 C 0.49454 0.63332 0.05942
 C1261 C 0.00154 0.22093 0.60331
 C1262 C 0.00003 0.19444 0.58814
 C1263 C -0.00256 0.16247 0.57233
 C1264 C -0.00466 0.13462 0.55998
 C1265 C 0.50211 0.21868 0.39621
 C1266 C 0.50370 0.19204 0.41106
 C1267 C 0.50609 0.15995 0.42662
 C1268 C 0.50769 0.13208 0.43897
 C1269 C 0.00057 0.71870 0.89573
 C1270 C 0.00245 0.69188 0.91022
 C1271 C 0.00517 0.65966 0.92540
 C1272 C 0.00706 0.63172 0.93754
 C1273 C 0.24909 0.64556 0.96926
 C1274 C 0.24773 0.66101 0.94294
 C1275 C 0.24547 0.67712 0.91110
 C1276 C 0.24373 0.68972 0.88334
 C1277 C 0.74805 0.14587 0.46623
 C1278 C 0.74619 0.16131 0.43994
 C1279 C 0.74350 0.17760 0.40824
 C1280 C 0.74171 0.19044 0.38061
 C1281 C 0.25037 0.35423 0.47085
 C1282 C 0.25275 0.33895 0.44447
 C1283 C 0.25614 0.32294 0.41264
 C1284 C 0.25850 0.31034 0.38490
 C1285 C 0.75114 0.85407 0.97057
 C1286 C 0.75323 0.83858 0.94428
 C1287 C 0.75611 0.82238 0.91251
 C1288 C 0.75799 0.80965 0.88480
 C1289 C 0.74886 0.85500 0.03197
 C1290 C 0.74665 0.84027 0.05865
 C1291 C 0.74359 0.82480 0.09074
 C1292 C 0.74154 0.81245 0.11859
 C1293 C 0.24852 0.35461 0.53225
 C1294 C 0.24670 0.33967 0.55883
 C1295 C 0.24409 0.32402 0.59085
 C1296 C 0.24237 0.31158 0.61868
 C1297 C 0.74905 0.14564 0.52752
 C1298 C 0.75072 0.16081 0.55400
 C1299 C 0.75344 0.17667 0.58593
 C1300 C 0.75555 0.18910 0.61374
 C1301 C 0.24996 0.64472 0.03067
 C1302 C 0.25209 0.65960 0.05730
 C1303 C 0.25523 0.67529 0.08931
 C1304 C 0.25741 0.68778 0.11712
 C1305 C 0.14606 0.53028 0.74856
 C1306 C 0.16122 0.55677 0.74980
 C1307 C 0.17709 0.58870 0.75208
 C1308 C 0.18953 0.61651 0.75397
 C1309 C 0.64600 0.03154 0.25072
 C1310 C 0.66103 0.05809 0.25217
 C1311 C 0.67667 0.09014 0.25438
 C1312 C 0.68904 0.11799 0.25586
 C1313 C 0.85410 0.02933 0.75045
 C1314 C 0.83875 0.05568 0.74858
 C1315 C 0.82274 0.08750 0.74562
 C1316 C 0.81027 0.11527 0.74330
 C1317 C 0.35399 0.53069 0.24940
 C1318 C 0.33859 0.55698 0.24710
 C1319 C 0.32247 0.58873 0.24389
 C1320 C 0.30981 0.61642 0.24172
 C1321 C 0.35457 0.46937 0.25158
 C1322 C 0.33971 0.44279 0.25377
 C1323 C 0.32421 0.41076 0.25689
 C1324 C 0.31193 0.38291 0.25905
 C1325 C 0.85448 0.96804 0.75196
 C1326 C 0.83932 0.94162 0.75407
 C1327 C 0.82333 0.90979 0.75709
 C1328 C 0.81069 0.88209 0.75913
 C1329 C 0.64589 0.97012 0.24968
 C1330 C 0.66091 0.94357 0.24776
 C1331 C 0.67663 0.91156 0.24496
 C1332 C 0.68907 0.88373 0.24303
 C1333 C 0.14631 0.46898 0.74830
 C1334 C 0.16170 0.44263 0.74664
 C1335 C 0.17788 0.41085 0.74415
 C1336 C 0.19063 0.38315 0.74250
 C1337 C 0.03006 0.74987 0.85414
 C1338 C 0.05631 0.74852 0.83859
 C1339 C 0.08808 0.74622 0.82241
 C1340 C 0.11581 0.74442 0.80979
 C1341 C 0.53204 0.24900 0.35425
 C1342 C 0.55832 0.24714 0.33874
 C1343 C 0.59007 0.24441 0.32247
 C1344 C 0.61774 0.24259 0.30965
 C1345 C 0.53053 0.75085 0.14551
 C1346 C 0.55695 0.75297 0.16075
 C1347 C 0.58882 0.75601 0.17673
 C1348 C 0.61657 0.75809 0.18935
 C1349 C 0.03209 0.25213 0.64556
 C1350 C 0.05841 0.25389 0.66099
 C1351 C 0.09021 0.25650 0.67712
 C1352 C 0.11794 0.25825 0.68981
 C1353 C 0.97073 0.25096 0.64489
 C1354 C 0.94411 0.24909 0.65977
 C1355 C 0.91205 0.24619 0.67532
 C1356 C 0.88418 0.24395 0.68758
 C1357 C 0.46913 0.74876 0.14527
 C1358 C 0.44260 0.74660 0.16029
 C1359 C 0.41062 0.74362 0.17599
 C1360 C 0.38279 0.74163 0.18842
 C1361 C 0.47058 0.25066 0.35530
 C1362 C 0.44379 0.25283 0.34072
 C1363 C 0.41155 0.25588 0.32548
 C1364 C 0.38359 0.25795 0.31331
 C1365 C 0.96870 0.75100 0.85534
 C1366 C 0.94196 0.75305 0.84067
 C1367 C 0.90981 0.75584 0.82526
 C1368 C 0.88191 0.75766 0.81296
   
